* XSpice netlist created from SPICE and liberty sources by spi2xspice.py
*SPICE netlist created from BLIF module sistemacompletodes by blif2BSpice
.subckt sistemacompletodes a_vdd a_gnd a_clk a_reset a_data_in_0_ a_data_in_1_ a_data_in_2_ a_data_in_3_ a_data_in_4_ a_data_in_5_ a_data_in_6_ a_data_in_7_ a_data_in_8_ a_data_in_9_ a_data_in_10_ a_data_in_11_ a_data_in_12_ a_data_in_13_ a_data_in_14_ a_data_in_15_ a_data_in_16_ a_data_in_17_ a_data_in_18_ a_data_in_19_ a_data_in_20_ a_data_in_21_ a_data_in_22_ a_data_in_23_ a_data_in_24_ a_data_in_25_ a_data_in_26_ a_data_in_27_ a_data_in_28_ a_data_in_29_ a_data_in_30_ a_data_in_31_ a_data_in_32_ a_data_in_33_ a_data_in_34_ a_data_in_35_ a_data_in_36_ a_data_in_37_ a_data_in_38_ a_data_in_39_ a_data_in_40_ a_data_in_41_ a_data_in_42_ a_data_in_43_ a_data_in_44_ a_data_in_45_ a_data_in_46_ a_data_in_47_ a_data_in_48_ a_data_in_49_ a_data_in_50_ a_data_in_51_ a_data_in_52_ a_data_in_53_ a_data_in_54_ a_data_in_55_ a_data_in_56_ a_data_in_57_ a_data_in_58_ a_data_in_59_ a_data_in_60_ a_data_in_61_ a_data_in_62_ a_data_in_63_ a_data_in_64_ a_data_in_65_ a_data_in_66_ a_data_in_67_ a_data_in_68_ a_data_in_69_ a_data_in_70_ a_data_in_71_ a_data_in_72_ a_data_in_73_ a_data_in_74_ a_data_in_75_ a_data_in_76_ a_data_in_77_ a_data_in_78_ a_data_in_79_ a_data_in_80_ a_data_in_81_ a_data_in_82_ a_data_in_83_ a_data_in_84_ a_data_in_85_ a_data_in_86_ a_data_in_87_ a_data_in_88_ a_data_in_89_ a_data_in_90_ a_data_in_91_ a_data_in_92_ a_data_in_93_ a_data_in_94_ a_data_in_95_ a_target_0_ a_target_1_ a_target_2_ a_target_3_ a_target_4_ a_target_5_ a_target_6_ a_target_7_ a_finished a_nonce_out_0_ a_nonce_out_1_ a_nonce_out_2_ a_nonce_out_3_ a_nonce_out_4_ a_nonce_out_5_ a_nonce_out_6_ a_nonce_out_7_ a_nonce_out_8_ a_nonce_out_9_ a_nonce_out_10_ a_nonce_out_11_ a_nonce_out_12_ a_nonce_out_13_ a_nonce_out_14_ a_nonce_out_15_ a_nonce_out_16_ a_nonce_out_17_ a_nonce_out_18_ a_nonce_out_19_ a_nonce_out_20_ a_nonce_out_21_ a_nonce_out_22_ a_nonce_out_23_ a_nonce_out_24_ a_nonce_out_25_ a_nonce_out_26_ a_nonce_out_27_ a_nonce_out_28_ a_nonce_out_29_ a_nonce_out_30_ a_nonce_out_31_
ABUFX4_1 [clk] clk_hier0_bF$buf11 d_lut_BUFX4
ABUFX4_2 [clk] clk_hier0_bF$buf10 d_lut_BUFX4
ABUFX4_3 [clk] clk_hier0_bF$buf9 d_lut_BUFX4
ABUFX4_4 [clk] clk_hier0_bF$buf8 d_lut_BUFX4
ABUFX4_5 [clk] clk_hier0_bF$buf7 d_lut_BUFX4
ABUFX4_6 [clk] clk_hier0_bF$buf6 d_lut_BUFX4
ABUFX4_7 [clk] clk_hier0_bF$buf5 d_lut_BUFX4
ABUFX4_8 [clk] clk_hier0_bF$buf4 d_lut_BUFX4
ABUFX4_9 [clk] clk_hier0_bF$buf3 d_lut_BUFX4
ABUFX4_10 [clk] clk_hier0_bF$buf2 d_lut_BUFX4
ABUFX4_11 [clk] clk_hier0_bF$buf1 d_lut_BUFX4
ABUFX4_12 [clk] clk_hier0_bF$buf0 d_lut_BUFX4
ABUFX4_13 [_12916_] _12916__hier0_bF$buf5 d_lut_BUFX4
ABUFX4_14 [_12916_] _12916__hier0_bF$buf4 d_lut_BUFX4
ABUFX4_15 [_12916_] _12916__hier0_bF$buf3 d_lut_BUFX4
ABUFX4_16 [_12916_] _12916__hier0_bF$buf2 d_lut_BUFX4
ABUFX4_17 [_12916_] _12916__hier0_bF$buf1 d_lut_BUFX4
ABUFX4_18 [_12916_] _12916__hier0_bF$buf0 d_lut_BUFX4
ABUFX4_19 [_4608_] _4608__bF$buf3 d_lut_BUFX4
ABUFX4_20 [_4608_] _4608__bF$buf2 d_lut_BUFX4
ABUFX4_21 [_4608_] _4608__bF$buf1 d_lut_BUFX4
ABUFX4_22 [_4608_] _4608__bF$buf0 d_lut_BUFX4
ABUFX4_23 [micro_hash_ucr_3.a_6_] micro_hash_ucr_3.a_6_bF$buf3_ d_lut_BUFX4
ABUFX4_24 [micro_hash_ucr_3.a_6_] micro_hash_ucr_3.a_6_bF$buf2_ d_lut_BUFX4
ABUFX4_25 [micro_hash_ucr_3.a_6_] micro_hash_ucr_3.a_6_bF$buf1_ d_lut_BUFX4
ABUFX4_26 [micro_hash_ucr_3.a_6_] micro_hash_ucr_3.a_6_bF$buf0_ d_lut_BUFX4
ABUFX4_27 [_10387_] _10387__bF$buf3 d_lut_BUFX4
ABUFX4_28 [_10387_] _10387__bF$buf2 d_lut_BUFX4
ABUFX4_29 [_10387_] _10387__bF$buf1 d_lut_BUFX4
ABUFX4_30 [_10387_] _10387__bF$buf0 d_lut_BUFX4
ABUFX4_31 [_13356_] _13356__bF$buf4 d_lut_BUFX4
ABUFX4_32 [_13356_] _13356__bF$buf3 d_lut_BUFX4
ABUFX4_33 [_13356_] _13356__bF$buf2 d_lut_BUFX4
ABUFX4_34 [_13356_] _13356__bF$buf1 d_lut_BUFX4
ABUFX4_35 [_13356_] _13356__bF$buf0 d_lut_BUFX4
ABUFX4_36 [_5087_] _5087__bF$buf4 d_lut_BUFX4
ABUFX4_37 [_5087_] _5087__bF$buf3 d_lut_BUFX4
ABUFX4_38 [_5087_] _5087__bF$buf2 d_lut_BUFX4
ABUFX4_39 [_5087_] _5087__bF$buf1 d_lut_BUFX4
ABUFX4_40 [_5087_] _5087__bF$buf0 d_lut_BUFX4
ABUFX4_41 [_9299_] _9299__bF$buf3 d_lut_BUFX4
ABUFX4_42 [_9299_] _9299__bF$buf2 d_lut_BUFX4
ABUFX4_43 [_9299_] _9299__bF$buf1 d_lut_BUFX4
ABUFX4_44 [_9299_] _9299__bF$buf0 d_lut_BUFX4
ABUFX4_45 [_3094_] _3094__bF$buf3 d_lut_BUFX4
ABUFX4_46 [_3094_] _3094__bF$buf2 d_lut_BUFX4
ABUFX4_47 [_3094_] _3094__bF$buf1 d_lut_BUFX4
ABUFX4_48 [_3094_] _3094__bF$buf0 d_lut_BUFX4
ABUFX4_49 [micro_hash_ucr_3.b_0_] micro_hash_ucr_3.b_0_bF$buf3_ d_lut_BUFX4
ABUFX4_50 [micro_hash_ucr_3.b_0_] micro_hash_ucr_3.b_0_bF$buf2_ d_lut_BUFX4
ABUFX4_51 [micro_hash_ucr_3.b_0_] micro_hash_ucr_3.b_0_bF$buf1_ d_lut_BUFX4
ABUFX4_52 [micro_hash_ucr_3.b_0_] micro_hash_ucr_3.b_0_bF$buf0_ d_lut_BUFX4
ABUFX4_53 [_5105_] _5105__bF$buf4 d_lut_BUFX4
ABUFX4_54 [_5105_] _5105__bF$buf3 d_lut_BUFX4
ABUFX4_55 [_5105_] _5105__bF$buf2 d_lut_BUFX4
ABUFX4_56 [_5105_] _5105__bF$buf1 d_lut_BUFX4
ABUFX4_57 [_5105_] _5105__bF$buf0 d_lut_BUFX4
ABUFX4_58 [_9317_] _9317__bF$buf4 d_lut_BUFX4
ABUFX4_59 [_9317_] _9317__bF$buf3 d_lut_BUFX4
ABUFX4_60 [_9317_] _9317__bF$buf2 d_lut_BUFX4
ABUFX4_61 [_9317_] _9317__bF$buf1 d_lut_BUFX4
ABUFX4_62 [_9317_] _9317__bF$buf0 d_lut_BUFX4
ABUFX4_63 [_5084_] _5084__bF$buf3 d_lut_BUFX4
ABUFX4_64 [_5084_] _5084__bF$buf2 d_lut_BUFX4
ABUFX4_65 [_5084_] _5084__bF$buf1 d_lut_BUFX4
ABUFX4_66 [_5084_] _5084__bF$buf0 d_lut_BUFX4
ABUFX4_67 [_5598_] _5598__bF$buf3 d_lut_BUFX4
ABUFX4_68 [_5598_] _5598__bF$buf2 d_lut_BUFX4
ABUFX4_69 [_5598_] _5598__bF$buf1 d_lut_BUFX4
ABUFX4_70 [_5598_] _5598__bF$buf0 d_lut_BUFX4
ABUFX4_71 [micro_hash_ucr.pipe50] micro_hash_ucr.pipe50_bF$buf3 d_lut_BUFX4
ABUFX4_72 [micro_hash_ucr.pipe50] micro_hash_ucr.pipe50_bF$buf2 d_lut_BUFX4
ABUFX4_73 [micro_hash_ucr.pipe50] micro_hash_ucr.pipe50_bF$buf1 d_lut_BUFX4
ABUFX4_74 [micro_hash_ucr.pipe50] micro_hash_ucr.pipe50_bF$buf0 d_lut_BUFX4
ABUFX4_75 [micro_hash_ucr.pipe52] micro_hash_ucr.pipe52_bF$buf4 d_lut_BUFX4
ABUFX4_76 [micro_hash_ucr.pipe52] micro_hash_ucr.pipe52_bF$buf3 d_lut_BUFX4
ABUFX4_77 [micro_hash_ucr.pipe52] micro_hash_ucr.pipe52_bF$buf2 d_lut_BUFX4
ABUFX4_78 [micro_hash_ucr.pipe52] micro_hash_ucr.pipe52_bF$buf1 d_lut_BUFX4
ABUFX4_79 [micro_hash_ucr.pipe52] micro_hash_ucr.pipe52_bF$buf0 d_lut_BUFX4
ABUFX4_80 [micro_hash_ucr.pipe53] micro_hash_ucr.pipe53_bF$buf3 d_lut_BUFX4
ABUFX4_81 [micro_hash_ucr.pipe53] micro_hash_ucr.pipe53_bF$buf2 d_lut_BUFX4
ABUFX4_82 [micro_hash_ucr.pipe53] micro_hash_ucr.pipe53_bF$buf1 d_lut_BUFX4
ABUFX4_83 [micro_hash_ucr.pipe53] micro_hash_ucr.pipe53_bF$buf0 d_lut_BUFX4
ABUFX4_84 [micro_hash_ucr.pipe54] micro_hash_ucr.pipe54_bF$buf3 d_lut_BUFX4
ABUFX4_85 [micro_hash_ucr.pipe54] micro_hash_ucr.pipe54_bF$buf2 d_lut_BUFX4
ABUFX4_86 [micro_hash_ucr.pipe54] micro_hash_ucr.pipe54_bF$buf1 d_lut_BUFX4
ABUFX4_87 [micro_hash_ucr.pipe54] micro_hash_ucr.pipe54_bF$buf0 d_lut_BUFX4
ABUFX4_88 [micro_hash_ucr.pipe56] micro_hash_ucr.pipe56_bF$buf3 d_lut_BUFX4
ABUFX4_89 [micro_hash_ucr.pipe56] micro_hash_ucr.pipe56_bF$buf2 d_lut_BUFX4
ABUFX4_90 [micro_hash_ucr.pipe56] micro_hash_ucr.pipe56_bF$buf1 d_lut_BUFX4
ABUFX4_91 [micro_hash_ucr.pipe56] micro_hash_ucr.pipe56_bF$buf0 d_lut_BUFX4
ABUFX4_92 [micro_hash_ucr.pipe57] micro_hash_ucr.pipe57_bF$buf3 d_lut_BUFX4
ABUFX4_93 [micro_hash_ucr.pipe57] micro_hash_ucr.pipe57_bF$buf2 d_lut_BUFX4
ABUFX4_94 [micro_hash_ucr.pipe57] micro_hash_ucr.pipe57_bF$buf1 d_lut_BUFX4
ABUFX4_95 [micro_hash_ucr.pipe57] micro_hash_ucr.pipe57_bF$buf0 d_lut_BUFX4
ABUFX4_96 [micro_hash_ucr.pipe58] micro_hash_ucr.pipe58_bF$buf4 d_lut_BUFX4
ABUFX4_97 [micro_hash_ucr.pipe58] micro_hash_ucr.pipe58_bF$buf3 d_lut_BUFX4
ABUFX4_98 [micro_hash_ucr.pipe58] micro_hash_ucr.pipe58_bF$buf2 d_lut_BUFX4
ABUFX4_99 [micro_hash_ucr.pipe58] micro_hash_ucr.pipe58_bF$buf1 d_lut_BUFX4
ABUFX4_100 [micro_hash_ucr.pipe58] micro_hash_ucr.pipe58_bF$buf0 d_lut_BUFX4
ABUFX4_101 [micro_hash_ucr.c_3_] micro_hash_ucr.c_3_bF$buf4_ d_lut_BUFX4
ABUFX4_102 [micro_hash_ucr.c_3_] micro_hash_ucr.c_3_bF$buf3_ d_lut_BUFX4
ABUFX4_103 [micro_hash_ucr.c_3_] micro_hash_ucr.c_3_bF$buf2_ d_lut_BUFX4
ABUFX4_104 [micro_hash_ucr.c_3_] micro_hash_ucr.c_3_bF$buf1_ d_lut_BUFX4
ABUFX4_105 [micro_hash_ucr.c_3_] micro_hash_ucr.c_3_bF$buf0_ d_lut_BUFX4
ABUFX4_106 [_926_] _926__bF$buf4 d_lut_BUFX4
ABUFX4_107 [_926_] _926__bF$buf3 d_lut_BUFX4
ABUFX4_108 [_926_] _926__bF$buf2 d_lut_BUFX4
ABUFX4_109 [_926_] _926__bF$buf1 d_lut_BUFX4
ABUFX4_110 [_926_] _926__bF$buf0 d_lut_BUFX4
ABUFX4_111 [micro_hash_ucr.b_6_] micro_hash_ucr.b_6_bF$buf3_ d_lut_BUFX4
ABUFX4_112 [micro_hash_ucr.b_6_] micro_hash_ucr.b_6_bF$buf2_ d_lut_BUFX4
ABUFX4_113 [micro_hash_ucr.b_6_] micro_hash_ucr.b_6_bF$buf1_ d_lut_BUFX4
ABUFX4_114 [micro_hash_ucr.b_6_] micro_hash_ucr.b_6_bF$buf0_ d_lut_BUFX4
ABUFX4_115 [micro_hash_ucr_3.a_0_] micro_hash_ucr_3.a_0_bF$buf3_ d_lut_BUFX4
ABUFX4_116 [micro_hash_ucr_3.a_0_] micro_hash_ucr_3.a_0_bF$buf2_ d_lut_BUFX4
ABUFX4_117 [micro_hash_ucr_3.a_0_] micro_hash_ucr_3.a_0_bF$buf1_ d_lut_BUFX4
ABUFX4_118 [micro_hash_ucr_3.a_0_] micro_hash_ucr_3.a_0_bF$buf0_ d_lut_BUFX4
ABUFX4_119 [_1956_] _1956__bF$buf5 d_lut_BUFX4
ABUFX4_120 [_1956_] _1956__bF$buf4 d_lut_BUFX4
ABUFX4_121 [_1956_] _1956__bF$buf3 d_lut_BUFX4
ABUFX4_122 [_1956_] _1956__bF$buf2 d_lut_BUFX4
ABUFX4_123 [_1956_] _1956__bF$buf1 d_lut_BUFX4
ABUFX4_124 [_1956_] _1956__bF$buf0 d_lut_BUFX4
ABUFX4_125 [_6154_] _6154__bF$buf3 d_lut_BUFX4
ABUFX4_126 [_6154_] _6154__bF$buf2 d_lut_BUFX4
ABUFX4_127 [_6154_] _6154__bF$buf1 d_lut_BUFX4
ABUFX4_128 [_6154_] _6154__bF$buf0 d_lut_BUFX4
ABUFX4_129 [_8814_] _8814__bF$buf3 d_lut_BUFX4
ABUFX4_130 [_8814_] _8814__bF$buf2 d_lut_BUFX4
ABUFX4_131 [_8814_] _8814__bF$buf1 d_lut_BUFX4
ABUFX4_132 [_8814_] _8814__bF$buf0 d_lut_BUFX4
ABUFX4_133 [_5081_] _5081__bF$buf3 d_lut_BUFX4
ABUFX4_134 [_5081_] _5081__bF$buf2 d_lut_BUFX4
ABUFX4_135 [_5081_] _5081__bF$buf1 d_lut_BUFX4
ABUFX4_136 [_5081_] _5081__bF$buf0 d_lut_BUFX4
ABUFX4_137 [_10798_] _10798__bF$buf5 d_lut_BUFX4
ABUFX4_138 [_10798_] _10798__bF$buf4 d_lut_BUFX4
ABUFX4_139 [_10798_] _10798__bF$buf3 d_lut_BUFX4
ABUFX4_140 [_10798_] _10798__bF$buf2 d_lut_BUFX4
ABUFX4_141 [_10798_] _10798__bF$buf1 d_lut_BUFX4
ABUFX4_142 [_10798_] _10798__bF$buf0 d_lut_BUFX4
ABUFX4_143 [micro_hash_ucr.pipe20] micro_hash_ucr.pipe20_bF$buf4 d_lut_BUFX4
ABUFX4_144 [micro_hash_ucr.pipe20] micro_hash_ucr.pipe20_bF$buf3 d_lut_BUFX4
ABUFX4_145 [micro_hash_ucr.pipe20] micro_hash_ucr.pipe20_bF$buf2 d_lut_BUFX4
ABUFX4_146 [micro_hash_ucr.pipe20] micro_hash_ucr.pipe20_bF$buf1 d_lut_BUFX4
ABUFX4_147 [micro_hash_ucr.pipe20] micro_hash_ucr.pipe20_bF$buf0 d_lut_BUFX4
ABUFX4_148 [micro_hash_ucr.pipe21] micro_hash_ucr.pipe21_bF$buf3 d_lut_BUFX4
ABUFX4_149 [micro_hash_ucr.pipe21] micro_hash_ucr.pipe21_bF$buf2 d_lut_BUFX4
ABUFX4_150 [micro_hash_ucr.pipe21] micro_hash_ucr.pipe21_bF$buf1 d_lut_BUFX4
ABUFX4_151 [micro_hash_ucr.pipe21] micro_hash_ucr.pipe21_bF$buf0 d_lut_BUFX4
ABUFX4_152 [micro_hash_ucr.pipe22] micro_hash_ucr.pipe22_bF$buf4 d_lut_BUFX4
ABUFX4_153 [micro_hash_ucr.pipe22] micro_hash_ucr.pipe22_bF$buf3 d_lut_BUFX4
ABUFX4_154 [micro_hash_ucr.pipe22] micro_hash_ucr.pipe22_bF$buf2 d_lut_BUFX4
ABUFX4_155 [micro_hash_ucr.pipe22] micro_hash_ucr.pipe22_bF$buf1 d_lut_BUFX4
ABUFX4_156 [micro_hash_ucr.pipe22] micro_hash_ucr.pipe22_bF$buf0 d_lut_BUFX4
ABUFX4_157 [micro_hash_ucr.pipe23] micro_hash_ucr.pipe23_bF$buf3 d_lut_BUFX4
ABUFX4_158 [micro_hash_ucr.pipe23] micro_hash_ucr.pipe23_bF$buf2 d_lut_BUFX4
ABUFX4_159 [micro_hash_ucr.pipe23] micro_hash_ucr.pipe23_bF$buf1 d_lut_BUFX4
ABUFX4_160 [micro_hash_ucr.pipe23] micro_hash_ucr.pipe23_bF$buf0 d_lut_BUFX4
ABUFX4_161 [micro_hash_ucr.pipe24] micro_hash_ucr.pipe24_bF$buf4 d_lut_BUFX4
ABUFX4_162 [micro_hash_ucr.pipe24] micro_hash_ucr.pipe24_bF$buf3 d_lut_BUFX4
ABUFX4_163 [micro_hash_ucr.pipe24] micro_hash_ucr.pipe24_bF$buf2 d_lut_BUFX4
ABUFX4_164 [micro_hash_ucr.pipe24] micro_hash_ucr.pipe24_bF$buf1 d_lut_BUFX4
ABUFX4_165 [micro_hash_ucr.pipe24] micro_hash_ucr.pipe24_bF$buf0 d_lut_BUFX4
ABUFX4_166 [micro_hash_ucr.pipe26] micro_hash_ucr.pipe26_bF$buf3 d_lut_BUFX4
ABUFX4_167 [micro_hash_ucr.pipe26] micro_hash_ucr.pipe26_bF$buf2 d_lut_BUFX4
ABUFX4_168 [micro_hash_ucr.pipe26] micro_hash_ucr.pipe26_bF$buf1 d_lut_BUFX4
ABUFX4_169 [micro_hash_ucr.pipe26] micro_hash_ucr.pipe26_bF$buf0 d_lut_BUFX4
ABUFX4_170 [micro_hash_ucr.pipe28] micro_hash_ucr.pipe28_bF$buf3 d_lut_BUFX4
ABUFX4_171 [micro_hash_ucr.pipe28] micro_hash_ucr.pipe28_bF$buf2 d_lut_BUFX4
ABUFX4_172 [micro_hash_ucr.pipe28] micro_hash_ucr.pipe28_bF$buf1 d_lut_BUFX4
ABUFX4_173 [micro_hash_ucr.pipe28] micro_hash_ucr.pipe28_bF$buf0 d_lut_BUFX4
ABUFX4_174 [micro_hash_ucr.pipe29] micro_hash_ucr.pipe29_bF$buf3 d_lut_BUFX4
ABUFX4_175 [micro_hash_ucr.pipe29] micro_hash_ucr.pipe29_bF$buf2 d_lut_BUFX4
ABUFX4_176 [micro_hash_ucr.pipe29] micro_hash_ucr.pipe29_bF$buf1 d_lut_BUFX4
ABUFX4_177 [micro_hash_ucr.pipe29] micro_hash_ucr.pipe29_bF$buf0 d_lut_BUFX4
ABUFX4_178 [_9293_] _9293__bF$buf3 d_lut_BUFX4
ABUFX4_179 [_9293_] _9293__bF$buf2 d_lut_BUFX4
ABUFX4_180 [_9293_] _9293__bF$buf1 d_lut_BUFX4
ABUFX4_181 [_9293_] _9293__bF$buf0 d_lut_BUFX4
ABUFX4_182 [_3106_] _3106__bF$buf5 d_lut_BUFX4
ABUFX4_183 [_3106_] _3106__bF$buf4 d_lut_BUFX4
ABUFX4_184 [_3106_] _3106__bF$buf3 d_lut_BUFX4
ABUFX4_185 [_3106_] _3106__bF$buf2 d_lut_BUFX4
ABUFX4_186 [_3106_] _3106__bF$buf1 d_lut_BUFX4
ABUFX4_187 [_3106_] _3106__bF$buf0 d_lut_BUFX4
ABUFX4_188 [micro_hash_ucr.c_0_] micro_hash_ucr.c_0_bF$buf3_ d_lut_BUFX4
ABUFX4_189 [micro_hash_ucr.c_0_] micro_hash_ucr.c_0_bF$buf2_ d_lut_BUFX4
ABUFX4_190 [micro_hash_ucr.c_0_] micro_hash_ucr.c_0_bF$buf1_ d_lut_BUFX4
ABUFX4_191 [micro_hash_ucr.c_0_] micro_hash_ucr.c_0_bF$buf0_ d_lut_BUFX4
ABUFX4_192 [micro_hash_ucr.b_3_] micro_hash_ucr.b_3_bF$buf3_ d_lut_BUFX4
ABUFX4_193 [micro_hash_ucr.b_3_] micro_hash_ucr.b_3_bF$buf2_ d_lut_BUFX4
ABUFX4_194 [micro_hash_ucr.b_3_] micro_hash_ucr.b_3_bF$buf1_ d_lut_BUFX4
ABUFX4_195 [micro_hash_ucr.b_3_] micro_hash_ucr.b_3_bF$buf0_ d_lut_BUFX4
ABUFX4_196 [_7776_] _7776__bF$buf4 d_lut_BUFX4
ABUFX4_197 [_7776_] _7776__bF$buf3 d_lut_BUFX4
ABUFX4_198 [_7776_] _7776__bF$buf2 d_lut_BUFX4
ABUFX4_199 [_7776_] _7776__bF$buf1 d_lut_BUFX4
ABUFX4_200 [_7776_] _7776__bF$buf0 d_lut_BUFX4
ABUFX4_201 [micro_hash_ucr.a_6_] micro_hash_ucr.a_6_bF$buf3_ d_lut_BUFX4
ABUFX4_202 [micro_hash_ucr.a_6_] micro_hash_ucr.a_6_bF$buf2_ d_lut_BUFX4
ABUFX4_203 [micro_hash_ucr.a_6_] micro_hash_ucr.a_6_bF$buf1_ d_lut_BUFX4
ABUFX4_204 [micro_hash_ucr.a_6_] micro_hash_ucr.a_6_bF$buf0_ d_lut_BUFX4
ABUFX4_205 [_9311_] _9311__bF$buf4 d_lut_BUFX4
ABUFX4_206 [_9311_] _9311__bF$buf3 d_lut_BUFX4
ABUFX4_207 [_9311_] _9311__bF$buf2 d_lut_BUFX4
ABUFX4_208 [_9311_] _9311__bF$buf1 d_lut_BUFX4
ABUFX4_209 [_9311_] _9311__bF$buf0 d_lut_BUFX4
ABUFX4_210 [_899_] _899__bF$buf3 d_lut_BUFX4
ABUFX4_211 [_899_] _899__bF$buf2 d_lut_BUFX4
ABUFX4_212 [_899_] _899__bF$buf1 d_lut_BUFX4
ABUFX4_213 [_899_] _899__bF$buf0 d_lut_BUFX4
ABUFX4_214 [_9290_] _9290__bF$buf3 d_lut_BUFX4
ABUFX4_215 [_9290_] _9290__bF$buf2 d_lut_BUFX4
ABUFX4_216 [_9290_] _9290__bF$buf1 d_lut_BUFX4
ABUFX4_217 [_9290_] _9290__bF$buf0 d_lut_BUFX4
ABUFX4_218 [_920_] _920__bF$buf4 d_lut_BUFX4
ABUFX4_219 [_920_] _920__bF$buf3 d_lut_BUFX4
ABUFX4_220 [_920_] _920__bF$buf2 d_lut_BUFX4
ABUFX4_221 [_920_] _920__bF$buf1 d_lut_BUFX4
ABUFX4_222 [_920_] _920__bF$buf0 d_lut_BUFX4
ABUFX4_223 [_5075_] _5075__bF$buf4 d_lut_BUFX4
ABUFX4_224 [_5075_] _5075__bF$buf3 d_lut_BUFX4
ABUFX4_225 [_5075_] _5075__bF$buf2 d_lut_BUFX4
ABUFX4_226 [_5075_] _5075__bF$buf1 d_lut_BUFX4
ABUFX4_227 [_5075_] _5075__bF$buf0 d_lut_BUFX4
ABUFX4_228 [micro_hash_ucr.b_0_] micro_hash_ucr.b_0_bF$buf3_ d_lut_BUFX4
ABUFX4_229 [micro_hash_ucr.b_0_] micro_hash_ucr.b_0_bF$buf2_ d_lut_BUFX4
ABUFX4_230 [micro_hash_ucr.b_0_] micro_hash_ucr.b_0_bF$buf1_ d_lut_BUFX4
ABUFX4_231 [micro_hash_ucr.b_0_] micro_hash_ucr.b_0_bF$buf0_ d_lut_BUFX4
ABUFX4_232 [_7315_] _7315__bF$buf5 d_lut_BUFX4
ABUFX4_233 [_7315_] _7315__bF$buf4 d_lut_BUFX4
ABUFX4_234 [_7315_] _7315__bF$buf3 d_lut_BUFX4
ABUFX4_235 [_7315_] _7315__bF$buf2 d_lut_BUFX4
ABUFX4_236 [_7315_] _7315__bF$buf1 d_lut_BUFX4
ABUFX4_237 [_7315_] _7315__bF$buf0 d_lut_BUFX4
ABUFX4_238 [_1721_] _1721__bF$buf4 d_lut_BUFX4
ABUFX4_239 [_1721_] _1721__bF$buf3 d_lut_BUFX4
ABUFX4_240 [_1721_] _1721__bF$buf2 d_lut_BUFX4
ABUFX4_241 [_1721_] _1721__bF$buf1 d_lut_BUFX4
ABUFX4_242 [_1721_] _1721__bF$buf0 d_lut_BUFX4
ABUFX4_243 [_9287_] _9287__bF$buf4 d_lut_BUFX4
ABUFX4_244 [_9287_] _9287__bF$buf3 d_lut_BUFX4
ABUFX4_245 [_9287_] _9287__bF$buf2 d_lut_BUFX4
ABUFX4_246 [_9287_] _9287__bF$buf1 d_lut_BUFX4
ABUFX4_247 [_9287_] _9287__bF$buf0 d_lut_BUFX4
ABUFX4_248 [_12900_] _12900__bF$buf3 d_lut_BUFX4
ABUFX4_249 [_12900_] _12900__bF$buf2 d_lut_BUFX4
ABUFX4_250 [_12900_] _12900__bF$buf1 d_lut_BUFX4
ABUFX4_251 [_12900_] _12900__bF$buf0 d_lut_BUFX4
ABUFX4_252 [_9305_] _9305__bF$buf4 d_lut_BUFX4
ABUFX4_253 [_9305_] _9305__bF$buf3 d_lut_BUFX4
ABUFX4_254 [_9305_] _9305__bF$buf2 d_lut_BUFX4
ABUFX4_255 [_9305_] _9305__bF$buf1 d_lut_BUFX4
ABUFX4_256 [_9305_] _9305__bF$buf0 d_lut_BUFX4
ABUFX4_257 [_896_] _896__bF$buf4 d_lut_BUFX4
ABUFX4_258 [_896_] _896__bF$buf3 d_lut_BUFX4
ABUFX4_259 [_896_] _896__bF$buf2 d_lut_BUFX4
ABUFX4_260 [_896_] _896__bF$buf1 d_lut_BUFX4
ABUFX4_261 [_896_] _896__bF$buf0 d_lut_BUFX4
ABUFX4_262 [_12001_] _12001__bF$buf4 d_lut_BUFX4
ABUFX4_263 [_12001_] _12001__bF$buf3 d_lut_BUFX4
ABUFX4_264 [_12001_] _12001__bF$buf2 d_lut_BUFX4
ABUFX4_265 [_12001_] _12001__bF$buf1 d_lut_BUFX4
ABUFX4_266 [_12001_] _12001__bF$buf0 d_lut_BUFX4
ABUFX4_267 [_400_] _400__bF$buf12 d_lut_BUFX4
ABUFX4_268 [_400_] _400__bF$buf11 d_lut_BUFX4
ABUFX4_269 [_400_] _400__bF$buf10 d_lut_BUFX4
ABUFX4_270 [_400_] _400__bF$buf9 d_lut_BUFX4
ABUFX4_271 [_400_] _400__bF$buf8 d_lut_BUFX4
ABUFX4_272 [_400_] _400__bF$buf7 d_lut_BUFX4
ABUFX4_273 [_400_] _400__bF$buf6 d_lut_BUFX4
ABUFX4_274 [_400_] _400__bF$buf5 d_lut_BUFX4
ABUFX4_275 [_400_] _400__bF$buf4 d_lut_BUFX4
ABUFX4_276 [_400_] _400__bF$buf3 d_lut_BUFX4
ABUFX4_277 [_400_] _400__bF$buf2 d_lut_BUFX4
ABUFX4_278 [_400_] _400__bF$buf1 d_lut_BUFX4
ABUFX4_279 [_400_] _400__bF$buf0 d_lut_BUFX4
ABUFX4_280 [_914_] _914__bF$buf4 d_lut_BUFX4
ABUFX4_281 [_914_] _914__bF$buf3 d_lut_BUFX4
ABUFX4_282 [_914_] _914__bF$buf2 d_lut_BUFX4
ABUFX4_283 [_914_] _914__bF$buf1 d_lut_BUFX4
ABUFX4_284 [_914_] _914__bF$buf0 d_lut_BUFX4
ABUFX4_285 [micro_hash_ucr.a_0_] micro_hash_ucr.a_0_bF$buf3_ d_lut_BUFX4
ABUFX4_286 [micro_hash_ucr.a_0_] micro_hash_ucr.a_0_bF$buf2_ d_lut_BUFX4
ABUFX4_287 [micro_hash_ucr.a_0_] micro_hash_ucr.a_0_bF$buf1_ d_lut_BUFX4
ABUFX4_288 [micro_hash_ucr.a_0_] micro_hash_ucr.a_0_bF$buf0_ d_lut_BUFX4
ACLKBUF1_1 [clk_hier0_bF$buf11] clk_bF$buf157 d_lut_CLKBUF1
ACLKBUF1_2 [clk_hier0_bF$buf10] clk_bF$buf156 d_lut_CLKBUF1
ACLKBUF1_3 [clk_hier0_bF$buf9] clk_bF$buf155 d_lut_CLKBUF1
ACLKBUF1_4 [clk_hier0_bF$buf8] clk_bF$buf154 d_lut_CLKBUF1
ACLKBUF1_5 [clk_hier0_bF$buf7] clk_bF$buf153 d_lut_CLKBUF1
ACLKBUF1_6 [clk_hier0_bF$buf6] clk_bF$buf152 d_lut_CLKBUF1
ACLKBUF1_7 [clk_hier0_bF$buf5] clk_bF$buf151 d_lut_CLKBUF1
ACLKBUF1_8 [clk_hier0_bF$buf4] clk_bF$buf150 d_lut_CLKBUF1
ACLKBUF1_9 [clk_hier0_bF$buf3] clk_bF$buf149 d_lut_CLKBUF1
ACLKBUF1_10 [clk_hier0_bF$buf2] clk_bF$buf148 d_lut_CLKBUF1
ACLKBUF1_11 [clk_hier0_bF$buf1] clk_bF$buf147 d_lut_CLKBUF1
ACLKBUF1_12 [clk_hier0_bF$buf0] clk_bF$buf146 d_lut_CLKBUF1
ACLKBUF1_13 [clk_hier0_bF$buf11] clk_bF$buf145 d_lut_CLKBUF1
ACLKBUF1_14 [clk_hier0_bF$buf10] clk_bF$buf144 d_lut_CLKBUF1
ACLKBUF1_15 [clk_hier0_bF$buf9] clk_bF$buf143 d_lut_CLKBUF1
ACLKBUF1_16 [clk_hier0_bF$buf8] clk_bF$buf142 d_lut_CLKBUF1
ACLKBUF1_17 [clk_hier0_bF$buf7] clk_bF$buf141 d_lut_CLKBUF1
ACLKBUF1_18 [clk_hier0_bF$buf6] clk_bF$buf140 d_lut_CLKBUF1
ACLKBUF1_19 [clk_hier0_bF$buf5] clk_bF$buf139 d_lut_CLKBUF1
ACLKBUF1_20 [clk_hier0_bF$buf4] clk_bF$buf138 d_lut_CLKBUF1
ACLKBUF1_21 [clk_hier0_bF$buf3] clk_bF$buf137 d_lut_CLKBUF1
ACLKBUF1_22 [clk_hier0_bF$buf2] clk_bF$buf136 d_lut_CLKBUF1
ACLKBUF1_23 [clk_hier0_bF$buf1] clk_bF$buf135 d_lut_CLKBUF1
ACLKBUF1_24 [clk_hier0_bF$buf0] clk_bF$buf134 d_lut_CLKBUF1
ACLKBUF1_25 [clk_hier0_bF$buf11] clk_bF$buf133 d_lut_CLKBUF1
ACLKBUF1_26 [clk_hier0_bF$buf10] clk_bF$buf132 d_lut_CLKBUF1
ACLKBUF1_27 [clk_hier0_bF$buf9] clk_bF$buf131 d_lut_CLKBUF1
ACLKBUF1_28 [clk_hier0_bF$buf8] clk_bF$buf130 d_lut_CLKBUF1
ACLKBUF1_29 [clk_hier0_bF$buf7] clk_bF$buf129 d_lut_CLKBUF1
ACLKBUF1_30 [clk_hier0_bF$buf6] clk_bF$buf128 d_lut_CLKBUF1
ACLKBUF1_31 [clk_hier0_bF$buf5] clk_bF$buf127 d_lut_CLKBUF1
ACLKBUF1_32 [clk_hier0_bF$buf4] clk_bF$buf126 d_lut_CLKBUF1
ACLKBUF1_33 [clk_hier0_bF$buf3] clk_bF$buf125 d_lut_CLKBUF1
ACLKBUF1_34 [clk_hier0_bF$buf2] clk_bF$buf124 d_lut_CLKBUF1
ACLKBUF1_35 [clk_hier0_bF$buf1] clk_bF$buf123 d_lut_CLKBUF1
ACLKBUF1_36 [clk_hier0_bF$buf0] clk_bF$buf122 d_lut_CLKBUF1
ACLKBUF1_37 [clk_hier0_bF$buf11] clk_bF$buf121 d_lut_CLKBUF1
ACLKBUF1_38 [clk_hier0_bF$buf10] clk_bF$buf120 d_lut_CLKBUF1
ACLKBUF1_39 [clk_hier0_bF$buf9] clk_bF$buf119 d_lut_CLKBUF1
ACLKBUF1_40 [clk_hier0_bF$buf8] clk_bF$buf118 d_lut_CLKBUF1
ACLKBUF1_41 [clk_hier0_bF$buf7] clk_bF$buf117 d_lut_CLKBUF1
ACLKBUF1_42 [clk_hier0_bF$buf6] clk_bF$buf116 d_lut_CLKBUF1
ACLKBUF1_43 [clk_hier0_bF$buf5] clk_bF$buf115 d_lut_CLKBUF1
ACLKBUF1_44 [clk_hier0_bF$buf4] clk_bF$buf114 d_lut_CLKBUF1
ACLKBUF1_45 [clk_hier0_bF$buf3] clk_bF$buf113 d_lut_CLKBUF1
ACLKBUF1_46 [clk_hier0_bF$buf2] clk_bF$buf112 d_lut_CLKBUF1
ACLKBUF1_47 [clk_hier0_bF$buf1] clk_bF$buf111 d_lut_CLKBUF1
ACLKBUF1_48 [clk_hier0_bF$buf0] clk_bF$buf110 d_lut_CLKBUF1
ACLKBUF1_49 [clk_hier0_bF$buf11] clk_bF$buf109 d_lut_CLKBUF1
ACLKBUF1_50 [clk_hier0_bF$buf10] clk_bF$buf108 d_lut_CLKBUF1
ACLKBUF1_51 [clk_hier0_bF$buf9] clk_bF$buf107 d_lut_CLKBUF1
ACLKBUF1_52 [clk_hier0_bF$buf8] clk_bF$buf106 d_lut_CLKBUF1
ACLKBUF1_53 [clk_hier0_bF$buf7] clk_bF$buf105 d_lut_CLKBUF1
ACLKBUF1_54 [clk_hier0_bF$buf6] clk_bF$buf104 d_lut_CLKBUF1
ACLKBUF1_55 [clk_hier0_bF$buf5] clk_bF$buf103 d_lut_CLKBUF1
ACLKBUF1_56 [clk_hier0_bF$buf4] clk_bF$buf102 d_lut_CLKBUF1
ACLKBUF1_57 [clk_hier0_bF$buf3] clk_bF$buf101 d_lut_CLKBUF1
ACLKBUF1_58 [clk_hier0_bF$buf2] clk_bF$buf100 d_lut_CLKBUF1
ACLKBUF1_59 [clk_hier0_bF$buf1] clk_bF$buf99 d_lut_CLKBUF1
ACLKBUF1_60 [clk_hier0_bF$buf0] clk_bF$buf98 d_lut_CLKBUF1
ACLKBUF1_61 [clk_hier0_bF$buf11] clk_bF$buf97 d_lut_CLKBUF1
ACLKBUF1_62 [clk_hier0_bF$buf10] clk_bF$buf96 d_lut_CLKBUF1
ACLKBUF1_63 [clk_hier0_bF$buf9] clk_bF$buf95 d_lut_CLKBUF1
ACLKBUF1_64 [clk_hier0_bF$buf8] clk_bF$buf94 d_lut_CLKBUF1
ACLKBUF1_65 [clk_hier0_bF$buf7] clk_bF$buf93 d_lut_CLKBUF1
ACLKBUF1_66 [clk_hier0_bF$buf6] clk_bF$buf92 d_lut_CLKBUF1
ACLKBUF1_67 [clk_hier0_bF$buf5] clk_bF$buf91 d_lut_CLKBUF1
ACLKBUF1_68 [clk_hier0_bF$buf4] clk_bF$buf90 d_lut_CLKBUF1
ACLKBUF1_69 [clk_hier0_bF$buf3] clk_bF$buf89 d_lut_CLKBUF1
ACLKBUF1_70 [clk_hier0_bF$buf2] clk_bF$buf88 d_lut_CLKBUF1
ACLKBUF1_71 [clk_hier0_bF$buf1] clk_bF$buf87 d_lut_CLKBUF1
ACLKBUF1_72 [clk_hier0_bF$buf0] clk_bF$buf86 d_lut_CLKBUF1
ACLKBUF1_73 [clk_hier0_bF$buf11] clk_bF$buf85 d_lut_CLKBUF1
ACLKBUF1_74 [clk_hier0_bF$buf10] clk_bF$buf84 d_lut_CLKBUF1
ACLKBUF1_75 [clk_hier0_bF$buf9] clk_bF$buf83 d_lut_CLKBUF1
ACLKBUF1_76 [clk_hier0_bF$buf8] clk_bF$buf82 d_lut_CLKBUF1
ACLKBUF1_77 [clk_hier0_bF$buf7] clk_bF$buf81 d_lut_CLKBUF1
ACLKBUF1_78 [clk_hier0_bF$buf6] clk_bF$buf80 d_lut_CLKBUF1
ACLKBUF1_79 [clk_hier0_bF$buf5] clk_bF$buf79 d_lut_CLKBUF1
ACLKBUF1_80 [clk_hier0_bF$buf4] clk_bF$buf78 d_lut_CLKBUF1
ACLKBUF1_81 [clk_hier0_bF$buf3] clk_bF$buf77 d_lut_CLKBUF1
ACLKBUF1_82 [clk_hier0_bF$buf2] clk_bF$buf76 d_lut_CLKBUF1
ACLKBUF1_83 [clk_hier0_bF$buf1] clk_bF$buf75 d_lut_CLKBUF1
ACLKBUF1_84 [clk_hier0_bF$buf0] clk_bF$buf74 d_lut_CLKBUF1
ACLKBUF1_85 [clk_hier0_bF$buf11] clk_bF$buf73 d_lut_CLKBUF1
ACLKBUF1_86 [clk_hier0_bF$buf10] clk_bF$buf72 d_lut_CLKBUF1
ACLKBUF1_87 [clk_hier0_bF$buf9] clk_bF$buf71 d_lut_CLKBUF1
ACLKBUF1_88 [clk_hier0_bF$buf8] clk_bF$buf70 d_lut_CLKBUF1
ACLKBUF1_89 [clk_hier0_bF$buf7] clk_bF$buf69 d_lut_CLKBUF1
ACLKBUF1_90 [clk_hier0_bF$buf6] clk_bF$buf68 d_lut_CLKBUF1
ACLKBUF1_91 [clk_hier0_bF$buf5] clk_bF$buf67 d_lut_CLKBUF1
ACLKBUF1_92 [clk_hier0_bF$buf4] clk_bF$buf66 d_lut_CLKBUF1
ACLKBUF1_93 [clk_hier0_bF$buf3] clk_bF$buf65 d_lut_CLKBUF1
ACLKBUF1_94 [clk_hier0_bF$buf2] clk_bF$buf64 d_lut_CLKBUF1
ACLKBUF1_95 [clk_hier0_bF$buf1] clk_bF$buf63 d_lut_CLKBUF1
ACLKBUF1_96 [clk_hier0_bF$buf0] clk_bF$buf62 d_lut_CLKBUF1
ACLKBUF1_97 [clk_hier0_bF$buf11] clk_bF$buf61 d_lut_CLKBUF1
ACLKBUF1_98 [clk_hier0_bF$buf10] clk_bF$buf60 d_lut_CLKBUF1
ACLKBUF1_99 [clk_hier0_bF$buf9] clk_bF$buf59 d_lut_CLKBUF1
ACLKBUF1_100 [clk_hier0_bF$buf8] clk_bF$buf58 d_lut_CLKBUF1
ACLKBUF1_101 [clk_hier0_bF$buf7] clk_bF$buf57 d_lut_CLKBUF1
ACLKBUF1_102 [clk_hier0_bF$buf6] clk_bF$buf56 d_lut_CLKBUF1
ACLKBUF1_103 [clk_hier0_bF$buf5] clk_bF$buf55 d_lut_CLKBUF1
ACLKBUF1_104 [clk_hier0_bF$buf4] clk_bF$buf54 d_lut_CLKBUF1
ACLKBUF1_105 [clk_hier0_bF$buf3] clk_bF$buf53 d_lut_CLKBUF1
ACLKBUF1_106 [clk_hier0_bF$buf2] clk_bF$buf52 d_lut_CLKBUF1
ACLKBUF1_107 [clk_hier0_bF$buf1] clk_bF$buf51 d_lut_CLKBUF1
ACLKBUF1_108 [clk_hier0_bF$buf0] clk_bF$buf50 d_lut_CLKBUF1
ACLKBUF1_109 [clk_hier0_bF$buf11] clk_bF$buf49 d_lut_CLKBUF1
ACLKBUF1_110 [clk_hier0_bF$buf10] clk_bF$buf48 d_lut_CLKBUF1
ACLKBUF1_111 [clk_hier0_bF$buf9] clk_bF$buf47 d_lut_CLKBUF1
ACLKBUF1_112 [clk_hier0_bF$buf8] clk_bF$buf46 d_lut_CLKBUF1
ACLKBUF1_113 [clk_hier0_bF$buf7] clk_bF$buf45 d_lut_CLKBUF1
ACLKBUF1_114 [clk_hier0_bF$buf6] clk_bF$buf44 d_lut_CLKBUF1
ACLKBUF1_115 [clk_hier0_bF$buf5] clk_bF$buf43 d_lut_CLKBUF1
ACLKBUF1_116 [clk_hier0_bF$buf4] clk_bF$buf42 d_lut_CLKBUF1
ACLKBUF1_117 [clk_hier0_bF$buf3] clk_bF$buf41 d_lut_CLKBUF1
ACLKBUF1_118 [clk_hier0_bF$buf2] clk_bF$buf40 d_lut_CLKBUF1
ACLKBUF1_119 [clk_hier0_bF$buf1] clk_bF$buf39 d_lut_CLKBUF1
ACLKBUF1_120 [clk_hier0_bF$buf0] clk_bF$buf38 d_lut_CLKBUF1
ACLKBUF1_121 [clk_hier0_bF$buf11] clk_bF$buf37 d_lut_CLKBUF1
ACLKBUF1_122 [clk_hier0_bF$buf10] clk_bF$buf36 d_lut_CLKBUF1
ACLKBUF1_123 [clk_hier0_bF$buf9] clk_bF$buf35 d_lut_CLKBUF1
ACLKBUF1_124 [clk_hier0_bF$buf8] clk_bF$buf34 d_lut_CLKBUF1
ACLKBUF1_125 [clk_hier0_bF$buf7] clk_bF$buf33 d_lut_CLKBUF1
ACLKBUF1_126 [clk_hier0_bF$buf6] clk_bF$buf32 d_lut_CLKBUF1
ACLKBUF1_127 [clk_hier0_bF$buf5] clk_bF$buf31 d_lut_CLKBUF1
ACLKBUF1_128 [clk_hier0_bF$buf4] clk_bF$buf30 d_lut_CLKBUF1
ACLKBUF1_129 [clk_hier0_bF$buf3] clk_bF$buf29 d_lut_CLKBUF1
ACLKBUF1_130 [clk_hier0_bF$buf2] clk_bF$buf28 d_lut_CLKBUF1
ACLKBUF1_131 [clk_hier0_bF$buf1] clk_bF$buf27 d_lut_CLKBUF1
ACLKBUF1_132 [clk_hier0_bF$buf0] clk_bF$buf26 d_lut_CLKBUF1
ACLKBUF1_133 [clk_hier0_bF$buf11] clk_bF$buf25 d_lut_CLKBUF1
ACLKBUF1_134 [clk_hier0_bF$buf10] clk_bF$buf24 d_lut_CLKBUF1
ACLKBUF1_135 [clk_hier0_bF$buf9] clk_bF$buf23 d_lut_CLKBUF1
ACLKBUF1_136 [clk_hier0_bF$buf8] clk_bF$buf22 d_lut_CLKBUF1
ACLKBUF1_137 [clk_hier0_bF$buf7] clk_bF$buf21 d_lut_CLKBUF1
ACLKBUF1_138 [clk_hier0_bF$buf6] clk_bF$buf20 d_lut_CLKBUF1
ACLKBUF1_139 [clk_hier0_bF$buf5] clk_bF$buf19 d_lut_CLKBUF1
ACLKBUF1_140 [clk_hier0_bF$buf4] clk_bF$buf18 d_lut_CLKBUF1
ACLKBUF1_141 [clk_hier0_bF$buf3] clk_bF$buf17 d_lut_CLKBUF1
ACLKBUF1_142 [clk_hier0_bF$buf2] clk_bF$buf16 d_lut_CLKBUF1
ACLKBUF1_143 [clk_hier0_bF$buf1] clk_bF$buf15 d_lut_CLKBUF1
ACLKBUF1_144 [clk_hier0_bF$buf0] clk_bF$buf14 d_lut_CLKBUF1
ACLKBUF1_145 [clk_hier0_bF$buf11] clk_bF$buf13 d_lut_CLKBUF1
ACLKBUF1_146 [clk_hier0_bF$buf10] clk_bF$buf12 d_lut_CLKBUF1
ACLKBUF1_147 [clk_hier0_bF$buf9] clk_bF$buf11 d_lut_CLKBUF1
ACLKBUF1_148 [clk_hier0_bF$buf8] clk_bF$buf10 d_lut_CLKBUF1
ACLKBUF1_149 [clk_hier0_bF$buf7] clk_bF$buf9 d_lut_CLKBUF1
ACLKBUF1_150 [clk_hier0_bF$buf6] clk_bF$buf8 d_lut_CLKBUF1
ACLKBUF1_151 [clk_hier0_bF$buf5] clk_bF$buf7 d_lut_CLKBUF1
ACLKBUF1_152 [clk_hier0_bF$buf4] clk_bF$buf6 d_lut_CLKBUF1
ACLKBUF1_153 [clk_hier0_bF$buf3] clk_bF$buf5 d_lut_CLKBUF1
ACLKBUF1_154 [clk_hier0_bF$buf2] clk_bF$buf4 d_lut_CLKBUF1
ACLKBUF1_155 [clk_hier0_bF$buf1] clk_bF$buf3 d_lut_CLKBUF1
ACLKBUF1_156 [clk_hier0_bF$buf0] clk_bF$buf2 d_lut_CLKBUF1
ACLKBUF1_157 [clk_hier0_bF$buf11] clk_bF$buf1 d_lut_CLKBUF1
ACLKBUF1_158 [clk_hier0_bF$buf10] clk_bF$buf0 d_lut_CLKBUF1
ABUFX4_289 [_10522_] _10522__bF$buf4 d_lut_BUFX4
ABUFX4_290 [_10522_] _10522__bF$buf3 d_lut_BUFX4
ABUFX4_291 [_10522_] _10522__bF$buf2 d_lut_BUFX4
ABUFX4_292 [_10522_] _10522__bF$buf1 d_lut_BUFX4
ABUFX4_293 [_10522_] _10522__bF$buf0 d_lut_BUFX4
ABUFX4_294 [_11536_] _11536__bF$buf3 d_lut_BUFX4
ABUFX4_295 [_11536_] _11536__bF$buf2 d_lut_BUFX4
ABUFX4_296 [_11536_] _11536__bF$buf1 d_lut_BUFX4
ABUFX4_297 [_11536_] _11536__bF$buf0 d_lut_BUFX4
ABUFX4_298 [_10519_] _10519__bF$buf5 d_lut_BUFX4
ABUFX4_299 [_10519_] _10519__bF$buf4 d_lut_BUFX4
ABUFX4_300 [_10519_] _10519__bF$buf3 d_lut_BUFX4
ABUFX4_301 [_10519_] _10519__bF$buf2 d_lut_BUFX4
ABUFX4_302 [_10519_] _10519__bF$buf1 d_lut_BUFX4
ABUFX4_303 [_10519_] _10519__bF$buf0 d_lut_BUFX4
ABUFX4_304 [_5125_] _5125__bF$buf3 d_lut_BUFX4
ABUFX4_305 [_5125_] _5125__bF$buf2 d_lut_BUFX4
ABUFX4_306 [_5125_] _5125__bF$buf1 d_lut_BUFX4
ABUFX4_307 [_5125_] _5125__bF$buf0 d_lut_BUFX4
ABUFX4_308 [_8705_] _8705__bF$buf13 d_lut_BUFX4
ABUFX4_309 [_8705_] _8705__bF$buf12 d_lut_BUFX4
ABUFX4_310 [_8705_] _8705__bF$buf11 d_lut_BUFX4
ABUFX4_311 [_8705_] _8705__bF$buf10 d_lut_BUFX4
ABUFX4_312 [_8705_] _8705__bF$buf9 d_lut_BUFX4
ABUFX4_313 [_8705_] _8705__bF$buf8 d_lut_BUFX4
ABUFX4_314 [_8705_] _8705__bF$buf7 d_lut_BUFX4
ABUFX4_315 [_8705_] _8705__bF$buf6 d_lut_BUFX4
ABUFX4_316 [_8705_] _8705__bF$buf5 d_lut_BUFX4
ABUFX4_317 [_8705_] _8705__bF$buf4 d_lut_BUFX4
ABUFX4_318 [_8705_] _8705__bF$buf3 d_lut_BUFX4
ABUFX4_319 [_8705_] _8705__bF$buf2 d_lut_BUFX4
ABUFX4_320 [_8705_] _8705__bF$buf1 d_lut_BUFX4
ABUFX4_321 [_8705_] _8705__bF$buf0 d_lut_BUFX4
ABUFX4_322 [_911_] _911__bF$buf4 d_lut_BUFX4
ABUFX4_323 [_911_] _911__bF$buf3 d_lut_BUFX4
ABUFX4_324 [_911_] _911__bF$buf2 d_lut_BUFX4
ABUFX4_325 [_911_] _911__bF$buf1 d_lut_BUFX4
ABUFX4_326 [_911_] _911__bF$buf0 d_lut_BUFX4
ABUFX4_327 [_2306_] _2306__bF$buf3 d_lut_BUFX4