* XSpice netlist created from SPICE and liberty sources by spi2xspice.py
*SPICE netlist created from BLIF module systemcomplete by blif2BSpice
.subckt systemcomplete a_vdd a_gnd a_clk a_reset a_data_in_0_ a_data_in_1_ a_data_in_2_ a_data_in_3_ a_data_in_4_ a_data_in_5_ a_data_in_6_ a_data_in_7_ a_data_in_8_ a_data_in_9_ a_data_in_10_ a_data_in_11_ a_data_in_12_ a_data_in_13_ a_data_in_14_ a_data_in_15_ a_data_in_16_ a_data_in_17_ a_data_in_18_ a_data_in_19_ a_data_in_20_ a_data_in_21_ a_data_in_22_ a_data_in_23_ a_data_in_24_ a_data_in_25_ a_data_in_26_ a_data_in_27_ a_data_in_28_ a_data_in_29_ a_data_in_30_ a_data_in_31_ a_data_in_32_ a_data_in_33_ a_data_in_34_ a_data_in_35_ a_data_in_36_ a_data_in_37_ a_data_in_38_ a_data_in_39_ a_data_in_40_ a_data_in_41_ a_data_in_42_ a_data_in_43_ a_data_in_44_ a_data_in_45_ a_data_in_46_ a_data_in_47_ a_data_in_48_ a_data_in_49_ a_data_in_50_ a_data_in_51_ a_data_in_52_ a_data_in_53_ a_data_in_54_ a_data_in_55_ a_data_in_56_ a_data_in_57_ a_data_in_58_ a_data_in_59_ a_data_in_60_ a_data_in_61_ a_data_in_62_ a_data_in_63_ a_data_in_64_ a_data_in_65_ a_data_in_66_ a_data_in_67_ a_data_in_68_ a_data_in_69_ a_data_in_70_ a_data_in_71_ a_data_in_72_ a_data_in_73_ a_data_in_74_ a_data_in_75_ a_data_in_76_ a_data_in_77_ a_data_in_78_ a_data_in_79_ a_data_in_80_ a_data_in_81_ a_data_in_82_ a_data_in_83_ a_data_in_84_ a_data_in_85_ a_data_in_86_ a_data_in_87_ a_data_in_88_ a_data_in_89_ a_data_in_90_ a_data_in_91_ a_data_in_92_ a_data_in_93_ a_data_in_94_ a_data_in_95_ a_target_0_ a_target_1_ a_target_2_ a_target_3_ a_target_4_ a_target_5_ a_target_6_ a_target_7_ a_finished a_nonce_out_0_ a_nonce_out_1_ a_nonce_out_2_ a_nonce_out_3_ a_nonce_out_4_ a_nonce_out_5_ a_nonce_out_6_ a_nonce_out_7_ a_nonce_out_8_ a_nonce_out_9_ a_nonce_out_10_ a_nonce_out_11_ a_nonce_out_12_ a_nonce_out_13_ a_nonce_out_14_ a_nonce_out_15_ a_nonce_out_16_ a_nonce_out_17_ a_nonce_out_18_ a_nonce_out_19_ a_nonce_out_20_ a_nonce_out_21_ a_nonce_out_22_ a_nonce_out_23_ a_nonce_out_24_ a_nonce_out_25_ a_nonce_out_26_ a_nonce_out_27_ a_nonce_out_28_ a_nonce_out_29_ a_nonce_out_30_ a_nonce_out_31_
ABUFX4_1 [clk] clk_hier0_bF$buf8 d_lut_BUFX4
ABUFX4_2 [clk] clk_hier0_bF$buf7 d_lut_BUFX4
ABUFX4_3 [clk] clk_hier0_bF$buf6 d_lut_BUFX4
ABUFX4_4 [clk] clk_hier0_bF$buf5 d_lut_BUFX4
ABUFX4_5 [clk] clk_hier0_bF$buf4 d_lut_BUFX4
ABUFX4_6 [clk] clk_hier0_bF$buf3 d_lut_BUFX4
ABUFX4_7 [clk] clk_hier0_bF$buf2 d_lut_BUFX4
ABUFX4_8 [clk] clk_hier0_bF$buf1 d_lut_BUFX4
ABUFX4_9 [clk] clk_hier0_bF$buf0 d_lut_BUFX4
ABUFX4_10 [_4283_] _4283__hier0_bF$buf5 d_lut_BUFX4
ABUFX4_11 [_4283_] _4283__hier0_bF$buf4 d_lut_BUFX4
ABUFX4_12 [_4283_] _4283__hier0_bF$buf3 d_lut_BUFX4
ABUFX4_13 [_4283_] _4283__hier0_bF$buf2 d_lut_BUFX4
ABUFX4_14 [_4283_] _4283__hier0_bF$buf1 d_lut_BUFX4
ABUFX4_15 [_4283_] _4283__hier0_bF$buf0 d_lut_BUFX4
ABUFX4_16 [_588_] _588__bF$buf4 d_lut_BUFX4
ABUFX4_17 [_588_] _588__bF$buf3 d_lut_BUFX4
ABUFX4_18 [_588_] _588__bF$buf2 d_lut_BUFX4
ABUFX4_19 [_588_] _588__bF$buf1 d_lut_BUFX4
ABUFX4_20 [_588_] _588__bF$buf0 d_lut_BUFX4
ABUFX4_21 [_4226_] _4226__bF$buf3 d_lut_BUFX4
ABUFX4_22 [_4226_] _4226__bF$buf2 d_lut_BUFX4
ABUFX4_23 [_4226_] _4226__bF$buf1 d_lut_BUFX4
ABUFX4_24 [_4226_] _4226__bF$buf0 d_lut_BUFX4
ABUFX4_25 [_1122_] _1122__bF$buf4 d_lut_BUFX4
ABUFX4_26 [_1122_] _1122__bF$buf3 d_lut_BUFX4
ABUFX4_27 [_1122_] _1122__bF$buf2 d_lut_BUFX4
ABUFX4_28 [_1122_] _1122__bF$buf1 d_lut_BUFX4
ABUFX4_29 [_1122_] _1122__bF$buf0 d_lut_BUFX4
ABUFX4_30 [_832_] _832__bF$buf4 d_lut_BUFX4
ABUFX4_31 [_832_] _832__bF$buf3 d_lut_BUFX4
ABUFX4_32 [_832_] _832__bF$buf2 d_lut_BUFX4
ABUFX4_33 [_832_] _832__bF$buf1 d_lut_BUFX4
ABUFX4_34 [_832_] _832__bF$buf0 d_lut_BUFX4
ABUFX4_35 [micro_hash_ucr.pipe50] micro_hash_ucr.pipe50_bF$buf3 d_lut_BUFX4
ABUFX4_36 [micro_hash_ucr.pipe50] micro_hash_ucr.pipe50_bF$buf2 d_lut_BUFX4
ABUFX4_37 [micro_hash_ucr.pipe50] micro_hash_ucr.pipe50_bF$buf1 d_lut_BUFX4
ABUFX4_38 [micro_hash_ucr.pipe50] micro_hash_ucr.pipe50_bF$buf0 d_lut_BUFX4
ABUFX4_39 [micro_hash_ucr.pipe52] micro_hash_ucr.pipe52_bF$buf3 d_lut_BUFX4
ABUFX4_40 [micro_hash_ucr.pipe52] micro_hash_ucr.pipe52_bF$buf2 d_lut_BUFX4
ABUFX4_41 [micro_hash_ucr.pipe52] micro_hash_ucr.pipe52_bF$buf1 d_lut_BUFX4
ABUFX4_42 [micro_hash_ucr.pipe52] micro_hash_ucr.pipe52_bF$buf0 d_lut_BUFX4
ABUFX4_43 [micro_hash_ucr.pipe53] micro_hash_ucr.pipe53_bF$buf3 d_lut_BUFX4
ABUFX4_44 [micro_hash_ucr.pipe53] micro_hash_ucr.pipe53_bF$buf2 d_lut_BUFX4
ABUFX4_45 [micro_hash_ucr.pipe53] micro_hash_ucr.pipe53_bF$buf1 d_lut_BUFX4
ABUFX4_46 [micro_hash_ucr.pipe53] micro_hash_ucr.pipe53_bF$buf0 d_lut_BUFX4
ABUFX4_47 [micro_hash_ucr.pipe54] micro_hash_ucr.pipe54_bF$buf4 d_lut_BUFX4
ABUFX4_48 [micro_hash_ucr.pipe54] micro_hash_ucr.pipe54_bF$buf3 d_lut_BUFX4
ABUFX4_49 [micro_hash_ucr.pipe54] micro_hash_ucr.pipe54_bF$buf2 d_lut_BUFX4
ABUFX4_50 [micro_hash_ucr.pipe54] micro_hash_ucr.pipe54_bF$buf1 d_lut_BUFX4
ABUFX4_51 [micro_hash_ucr.pipe54] micro_hash_ucr.pipe54_bF$buf0 d_lut_BUFX4
ABUFX4_52 [micro_hash_ucr.pipe56] micro_hash_ucr.pipe56_bF$buf3 d_lut_BUFX4
ABUFX4_53 [micro_hash_ucr.pipe56] micro_hash_ucr.pipe56_bF$buf2 d_lut_BUFX4
ABUFX4_54 [micro_hash_ucr.pipe56] micro_hash_ucr.pipe56_bF$buf1 d_lut_BUFX4
ABUFX4_55 [micro_hash_ucr.pipe56] micro_hash_ucr.pipe56_bF$buf0 d_lut_BUFX4
ABUFX4_56 [micro_hash_ucr.pipe57] micro_hash_ucr.pipe57_bF$buf3 d_lut_BUFX4
ABUFX4_57 [micro_hash_ucr.pipe57] micro_hash_ucr.pipe57_bF$buf2 d_lut_BUFX4
ABUFX4_58 [micro_hash_ucr.pipe57] micro_hash_ucr.pipe57_bF$buf1 d_lut_BUFX4
ABUFX4_59 [micro_hash_ucr.pipe57] micro_hash_ucr.pipe57_bF$buf0 d_lut_BUFX4
ABUFX4_60 [micro_hash_ucr.pipe58] micro_hash_ucr.pipe58_bF$buf3 d_lut_BUFX4
ABUFX4_61 [micro_hash_ucr.pipe58] micro_hash_ucr.pipe58_bF$buf2 d_lut_BUFX4
ABUFX4_62 [micro_hash_ucr.pipe58] micro_hash_ucr.pipe58_bF$buf1 d_lut_BUFX4
ABUFX4_63 [micro_hash_ucr.pipe58] micro_hash_ucr.pipe58_bF$buf0 d_lut_BUFX4
ABUFX4_64 [micro_hash_ucr.c_3_] micro_hash_ucr.c_3_bF$buf3_ d_lut_BUFX4
ABUFX4_65 [micro_hash_ucr.c_3_] micro_hash_ucr.c_3_bF$buf2_ d_lut_BUFX4
ABUFX4_66 [micro_hash_ucr.c_3_] micro_hash_ucr.c_3_bF$buf1_ d_lut_BUFX4
ABUFX4_67 [micro_hash_ucr.c_3_] micro_hash_ucr.c_3_bF$buf0_ d_lut_BUFX4
ABUFX4_68 [micro_hash_ucr.b_6_] micro_hash_ucr.b_6_bF$buf3_ d_lut_BUFX4
ABUFX4_69 [micro_hash_ucr.b_6_] micro_hash_ucr.b_6_bF$buf2_ d_lut_BUFX4
ABUFX4_70 [micro_hash_ucr.b_6_] micro_hash_ucr.b_6_bF$buf1_ d_lut_BUFX4
ABUFX4_71 [micro_hash_ucr.b_6_] micro_hash_ucr.b_6_bF$buf0_ d_lut_BUFX4
ABUFX4_72 [_4199_] _4199__bF$buf5 d_lut_BUFX4
ABUFX4_73 [_4199_] _4199__bF$buf4 d_lut_BUFX4
ABUFX4_74 [_4199_] _4199__bF$buf3 d_lut_BUFX4
ABUFX4_75 [_4199_] _4199__bF$buf2 d_lut_BUFX4
ABUFX4_76 [_4199_] _4199__bF$buf1 d_lut_BUFX4
ABUFX4_77 [_4199_] _4199__bF$buf0 d_lut_BUFX4
ABUFX4_78 [_4220_] _4220__bF$buf4 d_lut_BUFX4
ABUFX4_79 [_4220_] _4220__bF$buf3 d_lut_BUFX4
ABUFX4_80 [_4220_] _4220__bF$buf2 d_lut_BUFX4
ABUFX4_81 [_4220_] _4220__bF$buf1 d_lut_BUFX4
ABUFX4_82 [_4220_] _4220__bF$buf0 d_lut_BUFX4
ABUFX4_83 [_4217_] _4217__bF$buf3 d_lut_BUFX4
ABUFX4_84 [_4217_] _4217__bF$buf2 d_lut_BUFX4
ABUFX4_85 [_4217_] _4217__bF$buf1 d_lut_BUFX4
ABUFX4_86 [_4217_] _4217__bF$buf0 d_lut_BUFX4
ABUFX4_87 [_2932_] _2932__bF$buf3 d_lut_BUFX4
ABUFX4_88 [_2932_] _2932__bF$buf2 d_lut_BUFX4
ABUFX4_89 [_2932_] _2932__bF$buf1 d_lut_BUFX4
ABUFX4_90 [_2932_] _2932__bF$buf0 d_lut_BUFX4
ABUFX4_91 [micro_hash_ucr.pipe20] micro_hash_ucr.pipe20_bF$buf3 d_lut_BUFX4
ABUFX4_92 [micro_hash_ucr.pipe20] micro_hash_ucr.pipe20_bF$buf2 d_lut_BUFX4
ABUFX4_93 [micro_hash_ucr.pipe20] micro_hash_ucr.pipe20_bF$buf1 d_lut_BUFX4
ABUFX4_94 [micro_hash_ucr.pipe20] micro_hash_ucr.pipe20_bF$buf0 d_lut_BUFX4
ABUFX4_95 [micro_hash_ucr.pipe22] micro_hash_ucr.pipe22_bF$buf3 d_lut_BUFX4
ABUFX4_96 [micro_hash_ucr.pipe22] micro_hash_ucr.pipe22_bF$buf2 d_lut_BUFX4
ABUFX4_97 [micro_hash_ucr.pipe22] micro_hash_ucr.pipe22_bF$buf1 d_lut_BUFX4
ABUFX4_98 [micro_hash_ucr.pipe22] micro_hash_ucr.pipe22_bF$buf0 d_lut_BUFX4
ABUFX4_99 [micro_hash_ucr.pipe24] micro_hash_ucr.pipe24_bF$buf3 d_lut_BUFX4
ABUFX4_100 [micro_hash_ucr.pipe24] micro_hash_ucr.pipe24_bF$buf2 d_lut_BUFX4
ABUFX4_101 [micro_hash_ucr.pipe24] micro_hash_ucr.pipe24_bF$buf1 d_lut_BUFX4
ABUFX4_102 [micro_hash_ucr.pipe24] micro_hash_ucr.pipe24_bF$buf0 d_lut_BUFX4
ABUFX4_103 [micro_hash_ucr.pipe25] micro_hash_ucr.pipe25_bF$buf3 d_lut_BUFX4
ABUFX4_104 [micro_hash_ucr.pipe25] micro_hash_ucr.pipe25_bF$buf2 d_lut_BUFX4
ABUFX4_105 [micro_hash_ucr.pipe25] micro_hash_ucr.pipe25_bF$buf1 d_lut_BUFX4
ABUFX4_106 [micro_hash_ucr.pipe25] micro_hash_ucr.pipe25_bF$buf0 d_lut_BUFX4
ABUFX4_107 [micro_hash_ucr.pipe26] micro_hash_ucr.pipe26_bF$buf3 d_lut_BUFX4
ABUFX4_108 [micro_hash_ucr.pipe26] micro_hash_ucr.pipe26_bF$buf2 d_lut_BUFX4
ABUFX4_109 [micro_hash_ucr.pipe26] micro_hash_ucr.pipe26_bF$buf1 d_lut_BUFX4
ABUFX4_110 [micro_hash_ucr.pipe26] micro_hash_ucr.pipe26_bF$buf0 d_lut_BUFX4
ABUFX4_111 [micro_hash_ucr.pipe27] micro_hash_ucr.pipe27_bF$buf3 d_lut_BUFX4
ABUFX4_112 [micro_hash_ucr.pipe27] micro_hash_ucr.pipe27_bF$buf2 d_lut_BUFX4
ABUFX4_113 [micro_hash_ucr.pipe27] micro_hash_ucr.pipe27_bF$buf1 d_lut_BUFX4
ABUFX4_114 [micro_hash_ucr.pipe27] micro_hash_ucr.pipe27_bF$buf0 d_lut_BUFX4
ABUFX4_115 [micro_hash_ucr.pipe28] micro_hash_ucr.pipe28_bF$buf3 d_lut_BUFX4
ABUFX4_116 [micro_hash_ucr.pipe28] micro_hash_ucr.pipe28_bF$buf2 d_lut_BUFX4
ABUFX4_117 [micro_hash_ucr.pipe28] micro_hash_ucr.pipe28_bF$buf1 d_lut_BUFX4
ABUFX4_118 [micro_hash_ucr.pipe28] micro_hash_ucr.pipe28_bF$buf0 d_lut_BUFX4
ABUFX4_119 [micro_hash_ucr.c_0_] micro_hash_ucr.c_0_bF$buf3_ d_lut_BUFX4
ABUFX4_120 [micro_hash_ucr.c_0_] micro_hash_ucr.c_0_bF$buf2_ d_lut_BUFX4
ABUFX4_121 [micro_hash_ucr.c_0_] micro_hash_ucr.c_0_bF$buf1_ d_lut_BUFX4
ABUFX4_122 [micro_hash_ucr.c_0_] micro_hash_ucr.c_0_bF$buf0_ d_lut_BUFX4
ABUFX4_123 [micro_hash_ucr.b_3_] micro_hash_ucr.b_3_bF$buf3_ d_lut_BUFX4
ABUFX4_124 [micro_hash_ucr.b_3_] micro_hash_ucr.b_3_bF$buf2_ d_lut_BUFX4
ABUFX4_125 [micro_hash_ucr.b_3_] micro_hash_ucr.b_3_bF$buf1_ d_lut_BUFX4
ABUFX4_126 [micro_hash_ucr.b_3_] micro_hash_ucr.b_3_bF$buf0_ d_lut_BUFX4
ABUFX4_127 [_826_] _826__bF$buf3 d_lut_BUFX4
ABUFX4_128 [_826_] _826__bF$buf2 d_lut_BUFX4
ABUFX4_129 [_826_] _826__bF$buf1 d_lut_BUFX4
ABUFX4_130 [_826_] _826__bF$buf0 d_lut_BUFX4
ABUFX4_131 [micro_hash_ucr.a_6_] micro_hash_ucr.a_6_bF$buf3_ d_lut_BUFX4
ABUFX4_132 [micro_hash_ucr.a_6_] micro_hash_ucr.a_6_bF$buf2_ d_lut_BUFX4
ABUFX4_133 [micro_hash_ucr.a_6_] micro_hash_ucr.a_6_bF$buf1_ d_lut_BUFX4
ABUFX4_134 [micro_hash_ucr.a_6_] micro_hash_ucr.a_6_bF$buf0_ d_lut_BUFX4
ABUFX4_135 [_1665_] _1665__bF$buf3 d_lut_BUFX4
ABUFX4_136 [_1665_] _1665__bF$buf2 d_lut_BUFX4
ABUFX4_137 [_1665_] _1665__bF$buf1 d_lut_BUFX4
ABUFX4_138 [_1665_] _1665__bF$buf0 d_lut_BUFX4
ABUFX4_139 [_4214_] _4214__bF$buf4 d_lut_BUFX4
ABUFX4_140 [_4214_] _4214__bF$buf3 d_lut_BUFX4
ABUFX4_141 [_4214_] _4214__bF$buf2 d_lut_BUFX4
ABUFX4_142 [_4214_] _4214__bF$buf1 d_lut_BUFX4
ABUFX4_143 [_4214_] _4214__bF$buf0 d_lut_BUFX4
ABUFX4_144 [micro_hash_ucr.b_0_] micro_hash_ucr.b_0_bF$buf3_ d_lut_BUFX4
ABUFX4_145 [micro_hash_ucr.b_0_] micro_hash_ucr.b_0_bF$buf2_ d_lut_BUFX4
ABUFX4_146 [micro_hash_ucr.b_0_] micro_hash_ucr.b_0_bF$buf1_ d_lut_BUFX4
ABUFX4_147 [micro_hash_ucr.b_0_] micro_hash_ucr.b_0_bF$buf0_ d_lut_BUFX4
ABUFX4_148 [_823_] _823__bF$buf3 d_lut_BUFX4
ABUFX4_149 [_823_] _823__bF$buf2 d_lut_BUFX4
ABUFX4_150 [_823_] _823__bF$buf1 d_lut_BUFX4
ABUFX4_151 [_823_] _823__bF$buf0 d_lut_BUFX4
ABUFX4_152 [micro_hash_ucr.a_3_] micro_hash_ucr.a_3_bF$buf3_ d_lut_BUFX4
ABUFX4_153 [micro_hash_ucr.a_3_] micro_hash_ucr.a_3_bF$buf2_ d_lut_BUFX4
ABUFX4_154 [micro_hash_ucr.a_3_] micro_hash_ucr.a_3_bF$buf1_ d_lut_BUFX4
ABUFX4_155 [micro_hash_ucr.a_3_] micro_hash_ucr.a_3_bF$buf0_ d_lut_BUFX4
ABUFX4_156 [_3138_] _3138__bF$buf3 d_lut_BUFX4
ABUFX4_157 [_3138_] _3138__bF$buf2 d_lut_BUFX4
ABUFX4_158 [_3138_] _3138__bF$buf1 d_lut_BUFX4
ABUFX4_159 [_3138_] _3138__bF$buf0 d_lut_BUFX4
ABUFX4_160 [_4211_] _4211__bF$buf4 d_lut_BUFX4
ABUFX4_161 [_4211_] _4211__bF$buf3 d_lut_BUFX4
ABUFX4_162 [_4211_] _4211__bF$buf2 d_lut_BUFX4
ABUFX4_163 [_4211_] _4211__bF$buf1 d_lut_BUFX4
ABUFX4_164 [_4211_] _4211__bF$buf0 d_lut_BUFX4
ABUFX4_165 [micro_hash_ucr.a_0_] micro_hash_ucr.a_0_bF$buf3_ d_lut_BUFX4
ABUFX4_166 [micro_hash_ucr.a_0_] micro_hash_ucr.a_0_bF$buf2_ d_lut_BUFX4
ABUFX4_167 [micro_hash_ucr.a_0_] micro_hash_ucr.a_0_bF$buf1_ d_lut_BUFX4
ABUFX4_168 [micro_hash_ucr.a_0_] micro_hash_ucr.a_0_bF$buf0_ d_lut_BUFX4
ACLKBUF1_1 [clk_hier0_bF$buf8] clk_bF$buf83 d_lut_CLKBUF1
ACLKBUF1_2 [clk_hier0_bF$buf7] clk_bF$buf82 d_lut_CLKBUF1
ACLKBUF1_3 [clk_hier0_bF$buf6] clk_bF$buf81 d_lut_CLKBUF1
ACLKBUF1_4 [clk_hier0_bF$buf5] clk_bF$buf80 d_lut_CLKBUF1
ACLKBUF1_5 [clk_hier0_bF$buf4] clk_bF$buf79 d_lut_CLKBUF1
ACLKBUF1_6 [clk_hier0_bF$buf3] clk_bF$buf78 d_lut_CLKBUF1
ACLKBUF1_7 [clk_hier0_bF$buf2] clk_bF$buf77 d_lut_CLKBUF1
ACLKBUF1_8 [clk_hier0_bF$buf1] clk_bF$buf76 d_lut_CLKBUF1
ACLKBUF1_9 [clk_hier0_bF$buf0] clk_bF$buf75 d_lut_CLKBUF1
ACLKBUF1_10 [clk_hier0_bF$buf8] clk_bF$buf74 d_lut_CLKBUF1
ACLKBUF1_11 [clk_hier0_bF$buf7] clk_bF$buf73 d_lut_CLKBUF1
ACLKBUF1_12 [clk_hier0_bF$buf6] clk_bF$buf72 d_lut_CLKBUF1
ACLKBUF1_13 [clk_hier0_bF$buf5] clk_bF$buf71 d_lut_CLKBUF1
ACLKBUF1_14 [clk_hier0_bF$buf4] clk_bF$buf70 d_lut_CLKBUF1
ACLKBUF1_15 [clk_hier0_bF$buf3] clk_bF$buf69 d_lut_CLKBUF1
ACLKBUF1_16 [clk_hier0_bF$buf2] clk_bF$buf68 d_lut_CLKBUF1
ACLKBUF1_17 [clk_hier0_bF$buf1] clk_bF$buf67 d_lut_CLKBUF1
ACLKBUF1_18 [clk_hier0_bF$buf0] clk_bF$buf66 d_lut_CLKBUF1
ACLKBUF1_19 [clk_hier0_bF$buf8] clk_bF$buf65 d_lut_CLKBUF1
ACLKBUF1_20 [clk_hier0_bF$buf7] clk_bF$buf64 d_lut_CLKBUF1
ACLKBUF1_21 [clk_hier0_bF$buf6] clk_bF$buf63 d_lut_CLKBUF1
ACLKBUF1_22 [clk_hier0_bF$buf5] clk_bF$buf62 d_lut_CLKBUF1
ACLKBUF1_23 [clk_hier0_bF$buf4] clk_bF$buf61 d_lut_CLKBUF1
ACLKBUF1_24 [clk_hier0_bF$buf3] clk_bF$buf60 d_lut_CLKBUF1
ACLKBUF1_25 [clk_hier0_bF$buf2] clk_bF$buf59 d_lut_CLKBUF1
ACLKBUF1_26 [clk_hier0_bF$buf1] clk_bF$buf58 d_lut_CLKBUF1
ACLKBUF1_27 [clk_hier0_bF$buf0] clk_bF$buf57 d_lut_CLKBUF1
ACLKBUF1_28 [clk_hier0_bF$buf8] clk_bF$buf56 d_lut_CLKBUF1
ACLKBUF1_29 [clk_hier0_bF$buf7] clk_bF$buf55 d_lut_CLKBUF1
ACLKBUF1_30 [clk_hier0_bF$buf6] clk_bF$buf54 d_lut_CLKBUF1
ACLKBUF1_31 [clk_hier0_bF$buf5] clk_bF$buf53 d_lut_CLKBUF1
ACLKBUF1_32 [clk_hier0_bF$buf4] clk_bF$buf52 d_lut_CLKBUF1
ACLKBUF1_33 [clk_hier0_bF$buf3] clk_bF$buf51 d_lut_CLKBUF1
ACLKBUF1_34 [clk_hier0_bF$buf2] clk_bF$buf50 d_lut_CLKBUF1
ACLKBUF1_35 [clk_hier0_bF$buf1] clk_bF$buf49 d_lut_CLKBUF1
ACLKBUF1_36 [clk_hier0_bF$buf0] clk_bF$buf48 d_lut_CLKBUF1
ACLKBUF1_37 [clk_hier0_bF$buf8] clk_bF$buf47 d_lut_CLKBUF1
ACLKBUF1_38 [clk_hier0_bF$buf7] clk_bF$buf46 d_lut_CLKBUF1
ACLKBUF1_39 [clk_hier0_bF$buf6] clk_bF$buf45 d_lut_CLKBUF1
ACLKBUF1_40 [clk_hier0_bF$buf5] clk_bF$buf44 d_lut_CLKBUF1
ACLKBUF1_41 [clk_hier0_bF$buf4] clk_bF$buf43 d_lut_CLKBUF1
ACLKBUF1_42 [clk_hier0_bF$buf3] clk_bF$buf42 d_lut_CLKBUF1
ACLKBUF1_43 [clk_hier0_bF$buf2] clk_bF$buf41 d_lut_CLKBUF1
ACLKBUF1_44 [clk_hier0_bF$buf1] clk_bF$buf40 d_lut_CLKBUF1
ACLKBUF1_45 [clk_hier0_bF$buf0] clk_bF$buf39 d_lut_CLKBUF1
ACLKBUF1_46 [clk_hier0_bF$buf8] clk_bF$buf38 d_lut_CLKBUF1
ACLKBUF1_47 [clk_hier0_bF$buf7] clk_bF$buf37 d_lut_CLKBUF1
ACLKBUF1_48 [clk_hier0_bF$buf6] clk_bF$buf36 d_lut_CLKBUF1
ACLKBUF1_49 [clk_hier0_bF$buf5] clk_bF$buf35 d_lut_CLKBUF1
ACLKBUF1_50 [clk_hier0_bF$buf4] clk_bF$buf34 d_lut_CLKBUF1
ACLKBUF1_51 [clk_hier0_bF$buf3] clk_bF$buf33 d_lut_CLKBUF1
ACLKBUF1_52 [clk_hier0_bF$buf2] clk_bF$buf32 d_lut_CLKBUF1
ACLKBUF1_53 [clk_hier0_bF$buf1] clk_bF$buf31 d_lut_CLKBUF1
ACLKBUF1_54 [clk_hier0_bF$buf0] clk_bF$buf30 d_lut_CLKBUF1
ACLKBUF1_55 [clk_hier0_bF$buf8] clk_bF$buf29 d_lut_CLKBUF1
ACLKBUF1_56 [clk_hier0_bF$buf7] clk_bF$buf28 d_lut_CLKBUF1
ACLKBUF1_57 [clk_hier0_bF$buf6] clk_bF$buf27 d_lut_CLKBUF1
ACLKBUF1_58 [clk_hier0_bF$buf5] clk_bF$buf26 d_lut_CLKBUF1
ACLKBUF1_59 [clk_hier0_bF$buf4] clk_bF$buf25 d_lut_CLKBUF1
ACLKBUF1_60 [clk_hier0_bF$buf3] clk_bF$buf24 d_lut_CLKBUF1
ACLKBUF1_61 [clk_hier0_bF$buf2] clk_bF$buf23 d_lut_CLKBUF1
ACLKBUF1_62 [clk_hier0_bF$buf1] clk_bF$buf22 d_lut_CLKBUF1
ACLKBUF1_63 [clk_hier0_bF$buf0] clk_bF$buf21 d_lut_CLKBUF1
ACLKBUF1_64 [clk_hier0_bF$buf8] clk_bF$buf20 d_lut_CLKBUF1
ACLKBUF1_65 [clk_hier0_bF$buf7] clk_bF$buf19 d_lut_CLKBUF1
ACLKBUF1_66 [clk_hier0_bF$buf6] clk_bF$buf18 d_lut_CLKBUF1
ACLKBUF1_67 [clk_hier0_bF$buf5] clk_bF$buf17 d_lut_CLKBUF1
ACLKBUF1_68 [clk_hier0_bF$buf4] clk_bF$buf16 d_lut_CLKBUF1
ACLKBUF1_69 [clk_hier0_bF$buf3] clk_bF$buf15 d_lut_CLKBUF1
ACLKBUF1_70 [clk_hier0_bF$buf2] clk_bF$buf14 d_lut_CLKBUF1
ACLKBUF1_71 [clk_hier0_bF$buf1] clk_bF$buf13 d_lut_CLKBUF1
ACLKBUF1_72 [clk_hier0_bF$buf0] clk_bF$buf12 d_lut_CLKBUF1
ACLKBUF1_73 [clk_hier0_bF$buf8] clk_bF$buf11 d_lut_CLKBUF1
ACLKBUF1_74 [clk_hier0_bF$buf7] clk_bF$buf10 d_lut_CLKBUF1
ACLKBUF1_75 [clk_hier0_bF$buf6] clk_bF$buf9 d_lut_CLKBUF1
ACLKBUF1_76 [clk_hier0_bF$buf5] clk_bF$buf8 d_lut_CLKBUF1
ACLKBUF1_77 [clk_hier0_bF$buf4] clk_bF$buf7 d_lut_CLKBUF1
ACLKBUF1_78 [clk_hier0_bF$buf3] clk_bF$buf6 d_lut_CLKBUF1
ACLKBUF1_79 [clk_hier0_bF$buf2] clk_bF$buf5 d_lut_CLKBUF1
ACLKBUF1_80 [clk_hier0_bF$buf1] clk_bF$buf4 d_lut_CLKBUF1
ACLKBUF1_81 [clk_hier0_bF$buf0] clk_bF$buf3 d_lut_CLKBUF1
ACLKBUF1_82 [clk_hier0_bF$buf8] clk_bF$buf2 d_lut_CLKBUF1
ACLKBUF1_83 [clk_hier0_bF$buf7] clk_bF$buf1 d_lut_CLKBUF1
ACLKBUF1_84 [clk_hier0_bF$buf6] clk_bF$buf0 d_lut_CLKBUF1
ABUFX4_169 [_2441_] _2441__bF$buf3 d_lut_BUFX4
ABUFX4_170 [_2441_] _2441__bF$buf2 d_lut_BUFX4
ABUFX4_171 [_2441_] _2441__bF$buf1 d_lut_BUFX4
ABUFX4_172 [_2441_] _2441__bF$buf0 d_lut_BUFX4
ABUFX4_173 [_2820_] _2820__bF$buf3 d_lut_BUFX4
ABUFX4_174 [_2820_] _2820__bF$buf2 d_lut_BUFX4
ABUFX4_175 [_2820_] _2820__bF$buf1 d_lut_BUFX4
ABUFX4_176 [_2820_] _2820__bF$buf0 d_lut_BUFX4
ABUFX4_177 [_4237_] _4237__bF$buf4 d_lut_BUFX4
ABUFX4_178 [_4237_] _4237__bF$buf3 d_lut_BUFX4
ABUFX4_179 [_4237_] _4237__bF$buf2 d_lut_BUFX4
ABUFX4_180 [_4237_] _4237__bF$buf1 d_lut_BUFX4
ABUFX4_181 [_4237_] _4237__bF$buf0 d_lut_BUFX4
ABUFX4_182 [_426_] _426__bF$buf3 d_lut_BUFX4
ABUFX4_183 [_426_] _426__bF$buf2 d_lut_BUFX4
ABUFX4_184 [_426_] _426__bF$buf1 d_lut_BUFX4
ABUFX4_185 [_426_] _426__bF$buf0 d_lut_BUFX4
ABUFX4_186 [_4234_] _4234__bF$buf3 d_lut_BUFX4
ABUFX4_187 [_4234_] _4234__bF$buf2 d_lut_BUFX4
ABUFX4_188 [_4234_] _4234__bF$buf1 d_lut_BUFX4
ABUFX4_189 [_4234_] _4234__bF$buf0 d_lut_BUFX4
ABUFX4_190 [_2811_] _2811__bF$buf3 d_lut_BUFX4
ABUFX4_191 [_2811_] _2811__bF$buf2 d_lut_BUFX4
ABUFX4_192 [_2811_] _2811__bF$buf1 d_lut_BUFX4
ABUFX4_193 [_2811_] _2811__bF$buf0 d_lut_BUFX4
ABUFX4_194 [_1679_] _1679__bF$buf3 d_lut_BUFX4
ABUFX4_195 [_1679_] _1679__bF$buf2 d_lut_BUFX4
ABUFX4_196 [_1679_] _1679__bF$buf1 d_lut_BUFX4
ABUFX4_197 [_1679_] _1679__bF$buf0 d_lut_BUFX4
ABUFX4_198 [_399_] _399__bF$buf3 d_lut_BUFX4
ABUFX4_199 [_399_] _399__bF$buf2 d_lut_BUFX4
ABUFX4_200 [_399_] _399__bF$buf1 d_lut_BUFX4
ABUFX4_201 [_399_] _399__bF$buf0 d_lut_BUFX4
ABUFX4_202 [_4228_] _4228__bF$buf4 d_lut_BUFX4
ABUFX4_203 [_4228_] _4228__bF$buf3 d_lut_BUFX4
ABUFX4_204 [_4228_] _4228__bF$buf2 d_lut_BUFX4
ABUFX4_205 [_4228_] _4228__bF$buf1 d_lut_BUFX4
ABUFX4_206 [_4228_] _4228__bF$buf0 d_lut_BUFX4
ABUFX4_207 [_4225_] _4225__bF$buf4 d_lut_BUFX4
ABUFX4_208 [_4225_] _4225__bF$buf3 d_lut_BUFX4
ABUFX4_209 [_4225_] _4225__bF$buf2 d_lut_BUFX4
ABUFX4_210 [_4225_] _4225__bF$buf1 d_lut_BUFX4
ABUFX4_211 [_4225_] _4225__bF$buf0 d_lut_BUFX4
ABUFX4_212 [_3246_] _3246__bF$buf3 d_lut_BUFX4
ABUFX4_213 [_3246_] _3246__bF$buf2 d_lut_BUFX4
ABUFX4_214 [_3246_] _3246__bF$buf1 d_lut_BUFX4
ABUFX4_215 [_3246_] _3246__bF$buf0 d_lut_BUFX4
ABUFX4_216 [micro_hash_ucr.pipe70] micro_hash_ucr.pipe70_bF$buf3 d_lut_BUFX4
ABUFX4_217 [micro_hash_ucr.pipe70] micro_hash_ucr.pipe70_bF$buf2 d_lut_BUFX4
ABUFX4_218 [micro_hash_ucr.pipe70] micro_hash_ucr.pipe70_bF$buf1 d_lut_BUFX4
ABUFX4_219 [micro_hash_ucr.pipe70] micro_hash_ucr.pipe70_bF$buf0 d_lut_BUFX4
ABUFX4_220 [_317_] _317__bF$buf3 d_lut_BUFX4
ABUFX4_221 [_317_] _317__bF$buf2 d_lut_BUFX4
ABUFX4_222 [_317_] _317__bF$buf1 d_lut_BUFX4
ABUFX4_223 [_317_] _317__bF$buf0 d_lut_BUFX4
ABUFX4_224 [_1673_] _1673__bF$buf3 d_lut_BUFX4
ABUFX4_225 [_1673_] _1673__bF$buf2 d_lut_BUFX4
ABUFX4_226 [_1673_] _1673__bF$buf1 d_lut_BUFX4
ABUFX4_227 [_1673_] _1673__bF$buf0 d_lut_BUFX4
ABUFX4_228 [_296_] _296__bF$buf4 d_lut_BUFX4
ABUFX4_229 [_296_] _296__bF$buf3 d_lut_BUFX4
ABUFX4_230 [_296_] _296__bF$buf2 d_lut_BUFX4
ABUFX4_231 [_296_] _296__bF$buf1 d_lut_BUFX4
ABUFX4_232 [_296_] _296__bF$buf0 d_lut_BUFX4
ABUFX4_233 [_4219_] _4219__bF$buf4 d_lut_BUFX4
ABUFX4_234 [_4219_] _4219__bF$buf3 d_lut_BUFX4
ABUFX4_235 [_4219_] _4219__bF$buf2 d_lut_BUFX4
ABUFX4_236 [_4219_] _4219__bF$buf1 d_lut_BUFX4
ABUFX4_237 [_4219_] _4219__bF$buf0 d_lut_BUFX4
ABUFX4_238 [_220_] _220__bF$buf4 d_lut_BUFX4
ABUFX4_239 [_220_] _220__bF$buf3 d_lut_BUFX4
ABUFX4_240 [_220_] _220__bF$buf2 d_lut_BUFX4
ABUFX4_241 [_220_] _220__bF$buf1 d_lut_BUFX4
ABUFX4_242 [_220_] _220__bF$buf0 d_lut_BUFX4
ABUFX4_243 [_2514_] _2514__bF$buf3 d_lut_BUFX4
ABUFX4_244 [_2514_] _2514__bF$buf2 d_lut_BUFX4
ABUFX4_245 [_2514_] _2514__bF$buf1 d_lut_BUFX4
ABUFX4_246 [_2514_] _2514__bF$buf0 d_lut_BUFX4
ABUFX4_247 [_3892_] _3892__bF$buf3 d_lut_BUFX4
ABUFX4_248 [_3892_] _3892__bF$buf2 d_lut_BUFX4
ABUFX4_249 [_3892_] _3892__bF$buf1 d_lut_BUFX4
ABUFX4_250 [_3892_] _3892__bF$buf0 d_lut_BUFX4
ABUFX4_251 [micro_hash_ucr.pipe40] micro_hash_ucr.pipe40_bF$buf4 d_lut_BUFX4
ABUFX4_252 [micro_hash_ucr.pipe40] micro_hash_ucr.pipe40_bF$buf3 d_lut_BUFX4
ABUFX4_253 [micro_hash_ucr.pipe40] micro_hash_ucr.pipe40_bF$buf2 d_lut_BUFX4
ABUFX4_254 [micro_hash_ucr.pipe40] micro_hash_ucr.pipe40_bF$buf1 d_lut_BUFX4
ABUFX4_255 [micro_hash_ucr.pipe40] micro_hash_ucr.pipe40_bF$buf0 d_lut_BUFX4
ABUFX4_256 [micro_hash_ucr.pipe41] micro_hash_ucr.pipe41_bF$buf3 d_lut_BUFX4
ABUFX4_257 [micro_hash_ucr.pipe41] micro_hash_ucr.pipe41_bF$buf2 d_lut_BUFX4
ABUFX4_258 [micro_hash_ucr.pipe41] micro_hash_ucr.pipe41_bF$buf1 d_lut_BUFX4
ABUFX4_259 [micro_hash_ucr.pipe41] micro_hash_ucr.pipe41_bF$buf0 d_lut_BUFX4
ABUFX4_260 [micro_hash_ucr.pipe42] micro_hash_ucr.pipe42_bF$buf4 d_lut_BUFX4
ABUFX4_261 [micro_hash_ucr.pipe42] micro_hash_ucr.pipe42_bF$buf3 d_lut_BUFX4
ABUFX4_262 [micro_hash_ucr.pipe42] micro_hash_ucr.pipe42_bF$buf2 d_lut_BUFX4
ABUFX4_263 [micro_hash_ucr.pipe42] micro_hash_ucr.pipe42_bF$buf1 d_lut_BUFX4
ABUFX4_264 [micro_hash_ucr.pipe42] micro_hash_ucr.pipe42_bF$buf0 d_lut_BUFX4
ABUFX4_265 [micro_hash_ucr.pipe44] micro_hash_ucr.pipe44_bF$buf3 d_lut_BUFX4
ABUFX4_266 [micro_hash_ucr.pipe44] micro_hash_ucr.pipe44_bF$buf2 d_lut_BUFX4
ABUFX4_267 [micro_hash_ucr.pipe44] micro_hash_ucr.pipe44_bF$buf1 d_lut_BUFX4
ABUFX4_268 [micro_hash_ucr.pipe44] micro_hash_ucr.pipe44_bF$buf0 d_lut_BUFX4
ABUFX4_269 [micro_hash_ucr.pipe46] micro_hash_ucr.pipe46_bF$buf4 d_lut_BUFX4
ABUFX4_270 [micro_hash_ucr.pipe46] micro_hash_ucr.pipe46_bF$buf3 d_lut_BUFX4
ABUFX4_271 [micro_hash_ucr.pipe46] micro_hash_ucr.pipe46_bF$buf2 d_lut_BUFX4
ABUFX4_272 [micro_hash_ucr.pipe46] micro_hash_ucr.pipe46_bF$buf1 d_lut_BUFX4
ABUFX4_273 [micro_hash_ucr.pipe46] micro_hash_ucr.pipe46_bF$buf0 d_lut_BUFX4
ABUFX4_274 [micro_hash_ucr.pipe48] micro_hash_ucr.pipe48_bF$buf4 d_lut_BUFX4
ABUFX4_275 [micro_hash_ucr.pipe48] micro_hash_ucr.pipe48_bF$buf3 d_lut_BUFX4
ABUFX4_276 [micro_hash_ucr.pipe48] micro_hash_ucr.pipe48_bF$buf2 d_lut_BUFX4
ABUFX4_277 [micro_hash_ucr.pipe48] micro_hash_ucr.pipe48_bF$buf1 d_lut_BUFX4
ABUFX4_278 [micro_hash_ucr.pipe48] micro_hash_ucr.pipe48_bF$buf0 d_lut_BUFX4
ABUFX4_279 [micro_hash_ucr.pipe49] micro_hash_ucr.pipe49_bF$buf3 d_lut_BUFX4
ABUFX4_280 [micro_hash_ucr.pipe49] micro_hash_ucr.pipe49_bF$buf2 d_lut_BUFX4
ABUFX4_281 [micro_hash_ucr.pipe49] micro_hash_ucr.pipe49_bF$buf1 d_lut_BUFX4
ABUFX4_282 [micro_hash_ucr.pipe49] micro_hash_ucr.pipe49_bF$buf0 d_lut_BUFX4
ABUFX4_283 [micro_hash_ucr.c_2_] micro_hash_ucr.c_2_bF$buf3_ d_lut_BUFX4
ABUFX4_284 [micro_hash_ucr.c_2_] micro_hash_ucr.c_2_bF$buf2_ d_lut_BUFX4
ABUFX4_285 [micro_hash_ucr.c_2_] micro_hash_ucr.c_2_bF$buf1_ d_lut_BUFX4
ABUFX4_286 [micro_hash_ucr.c_2_] micro_hash_ucr.c_2_bF$buf0_ d_lut_BUFX4
ABUFX4_287 [micro_hash_ucr.b_5_] micro_hash_ucr.b_5_bF$buf3_ d_lut_BUFX4
ABUFX4_288 [micro_hash_ucr.b_5_] micro_hash_ucr.b_5_bF$buf2_ d_lut_BUFX4
ABUFX4_289 [micro_hash_ucr.b_5_] micro_hash_ucr.b_5_bF$buf1_ d_lut_BUFX4
ABUFX4_290 [micro_hash_ucr.b_5_] micro_hash_ucr.b_5_bF$buf0_ d_lut_BUFX4
ABUFX4_291 [_255_] _255__bF$buf3 d_lut_BUFX4
ABUFX4_292 [_255_] _255__bF$buf2 d_lut_BUFX4
ABUFX4_293 [_255_] _255__bF$buf1 d_lut_BUFX4
ABUFX4_294 [_255_] _255__bF$buf0 d_lut_BUFX4
ABUFX4_295 [_1438_] _1438__bF$buf5 d_lut_BUFX4
ABUFX4_296 [_1438_] _1438__bF$buf4 d_lut_BUFX4
ABUFX4_297 [_1438_] _1438__bF$buf3 d_lut_BUFX4
ABUFX4_298 [_1438_] _1438__bF$buf2 d_lut_BUFX4
ABUFX4_299 [_1438_] _1438__bF$buf1 d_lut_BUFX4
ABUFX4_300 [_1438_] _1438__bF$buf0 d_lut_BUFX4
ABUFX4_301 [micro_hash_ucr.pipe12] micro_hash_ucr.pipe12_bF$buf3 d_lut_BUFX4
ABUFX4_302 [micro_hash_ucr.pipe12] micro_hash_ucr.pipe12_bF$buf2 d_lut_BUFX4
ABUFX4_303 [micro_hash_ucr.pipe12] micro_hash_ucr.pipe12_bF$buf1 d_lut_BUFX4
ABUFX4_304 [micro_hash_ucr.pipe12] micro_hash_ucr.pipe12_bF$buf0 d_lut_BUFX4
ABUFX4_305 [micro_hash_ucr.pipe18] micro_hash_ucr.pipe18_bF$buf4 d_lut_BUFX4
ABUFX4_306 [micro_hash_ucr.pipe18] micro_hash_ucr.pipe18_bF$buf3 d_lut_BUFX4
ABUFX4_307 [micro_hash_ucr.pipe18] micro_hash_ucr.pipe18_bF$buf2 d_lut_BUFX4
ABUFX4_308 [micro_hash_ucr.pipe18] micro_hash_ucr.pipe18_bF$buf1 d_lut_BUFX4
ABUFX4_309 [micro_hash_ucr.pipe18] micro_hash_ucr.pipe18_bF$buf0 d_lut_BUFX4
ABUFX4_310 [micro_hash_ucr.b_2_] micro_hash_ucr.b_2_bF$buf3_ d_lut_BUFX4
ABUFX4_311 [micro_hash_ucr.b_2_] micro_hash_ucr.b_2_bF$buf2_ d_lut_BUFX4
ABUFX4_312 [micro_hash_ucr.b_2_] micro_hash_ucr.b_2_bF$buf1_ d_lut_BUFX4
ABUFX4_313 [micro_hash_ucr.b_2_] micro_hash_ucr.b_2_bF$buf0_ d_lut_BUFX4
ABUFX4_314 [micro_hash_ucr.a_5_] micro_hash_ucr.a_5_bF$buf3_ d_lut_BUFX4
ABUFX4_315 [micro_hash_ucr.a_5_] micro_hash_ucr.a_5_bF$buf2_ d_lut_BUFX4
ABUFX4_316 [micro_hash_ucr.a_5_] micro_hash_ucr.a_5_bF$buf1_ d_lut_BUFX4
ABUFX4_317 [micro_hash_ucr.a_5_] micro_hash_ucr.a_5_bF$buf0_ d_lut_BUFX4
ABUFX4_318 [_2487_] _2487__bF$buf3 d_lut_BUFX4
ABUFX4_319 [_2487_] _2487__bF$buf2 d_lut_BUFX4
ABUFX4_320 [_2487_] _2487__bF$buf1 d_lut_BUFX4
ABUFX4_321 [_2487_] _2487__bF$buf0 d_lut_BUFX4
ABUFX4_322 [_249_] _249__bF$buf3 d_lut_BUFX4
ABUFX4_323 [_249_] _249__bF$buf2 d_lut_BUFX4
ABUFX4_324 [_249_] _249__bF$buf1 d_lut_BUFX4
ABUFX4_325 [_249_] _249__bF$buf0 d_lut_BUFX4
ABUFX4_326 [micro_hash_ucr.a_2_] micro_hash_ucr.a_2_bF$buf4_ d_lut_BUFX4
ABUFX4_327 [micro_hash_ucr.a_2_] micro_hash_ucr.a_2_bF$buf3_ d_lut_BUFX4
ABUFX4_328 [micro_hash_ucr.a_2_] micro_hash_ucr.a_2_bF$buf2_ d_lut_BUFX4
ABUFX4_329 [micro_hash_ucr.a_2_] micro_hash_ucr.a_2_bF$buf1_ d_lut_BUFX4
ABUFX4_330 [micro_hash_ucr.a_2_] micro_hash_ucr.a_2_bF$buf0_ d_lut_BUFX4
ABUFX4_331 [_4210_] _4210__bF$buf4 d_lut_BUFX4
ABUFX4_332 [_4210_] _4210__bF$buf3 d_lut_BUFX4
ABUFX4_333 [_4210_] _4210__bF$buf2 d_lut_BUFX4
ABUFX4_334 [_4210_] _4210__bF$buf1 d_lut_BUFX4
ABUFX4_335 [_4210_] _4210__bF$buf0 d_lut_BUFX4
ABUFX4_336 [_0_] _0__bF$buf8 d_lut_BUFX4
ABUFX4_337 [_0_] _0__bF$buf7 d_lut_BUFX4
ABUFX4_338 [_0_] _0__bF$buf6 d_lut_BUFX4
ABUFX4_339 [_0_] _0__bF$buf5 d_lut_BUFX4
ABUFX4_340 [_0_] _0__bF$buf4 d_lut_BUFX4
ABUFX4_341 [_0_] _0__bF$buf3 d_lut_BUFX4
ABUFX4_342 [_0_] _0__bF$buf2 d_lut_BUFX4
ABUFX4_343 [_0_] _0__bF$buf1 d_lut_BUFX4
ABUFX4_344 [_0_] _0__bF$buf0 d_lut_BUFX4
ABUFX4_345 [_4207_] _4207__bF$buf4 d_lut_BUFX4
ABUFX4_346 [_4207_] _4207__bF$buf3 d_lut_BUFX4
ABUFX4_347 [_4207_] _4207__bF$buf2 d_lut_BUFX4
ABUFX4_348 [_4207_] _4207__bF$buf1 d_lut_BUFX4
ABUFX4_349 [_4207_] _4207__bF$buf0 d_lut_BUFX4
ABUFX4_350 [_4283__hier0_bF$buf5] _4283__bF$buf42 d_lut_BUFX4
ABUFX4_351 [_4283__hier0_bF$buf4] _4283__bF$buf41 d_lut_BUFX4
ABUFX4_352 [_4283__hier0_bF$buf3] _4283__bF$buf40 d_lut_BUFX4
ABUFX4_353 [_4283__hier0_bF$buf2] _4283__bF$buf39 d_lut_BUFX4
ABUFX4_354 [_4283__hier0_bF$buf1] _4283__bF$buf38 d_lut_BUFX4
ABUFX4_355 [_4283__hier0_bF$buf0] _4283__bF$buf37 d_lut_BUFX4
ABUFX4_356 [_4283__hier0_bF$buf5] _4283__bF$buf36 d_lut_BUFX4
ABUFX4_357 [_4283__hier0_bF$buf4] _4283__bF$buf35 d_lut_BUFX4
ABUFX4_358 [_4283__hier0_bF$buf3] _4283__bF$buf34 d_lut_BUFX4
ABUFX4_359 [_4283__hier0_bF$buf2] _4283__bF$buf33 d_lut_BUFX4
ABUFX4_360 [_4283__hier0_bF$buf1] _4283__bF$buf32 d_lut_BUFX4
ABUFX4_361 [_4283__hier0_bF$buf0] _4283__bF$buf31 d_lut_BUFX4
ABUFX4_362 [_4283__hier0_bF$buf5] _4283__bF$buf30 d_lut_BUFX4
ABUFX4_363 [_4283__hier0_bF$buf4] _4283__bF$buf29 d_lut_BUFX4
ABUFX4_364 [_4283__hier0_bF$buf3] _4283__bF$buf28 d_lut_BUFX4
ABUFX4_365 [_4283__hier0_bF$buf2] _4283__bF$buf27 d_lut_BUFX4
ABUFX4_366 [_4283__hier0_bF$buf1] _4283__bF$buf26 d_lut_BUFX4
ABUFX4_367 [_4283__hier0_bF$buf0] _4283__bF$buf25 d_lut_BUFX4
ABUFX4_368 [_4283__hier0_bF$buf5] _4283__bF$buf24 d_lut_BUFX4
ABUFX4_369 [_4283__hier0_bF$buf4] _4283__bF$buf23 d_lut_BUFX4
ABUFX4_370 [_4283__hier0_bF$buf3] _4283__bF$buf22 d_lut_BUFX4
ABUFX4_371 [_4283__hier0_bF$buf2] _4283__bF$buf21 d_lut_BUFX4
ABUFX4_372 [_4283__hier0_bF$buf1] _4283__bF$buf20 d_lut_BUFX4
ABUFX4_373 [_4283__hier0_bF$buf0] _4283__bF$buf19 d_lut_BUFX4
ABUFX4_374 [_4283__hier0_bF$buf5] _4283__bF$buf18 d_lut_BUFX4
ABUFX4_375 [_4283__hier0_bF$buf4] _4283__bF$buf17 d_lut_BUFX4
ABUFX4_376 [_4283__hier0_bF$buf3] _4283__bF$buf16 d_lut_BUFX4
ABUFX4_377 [_4283__hier0_bF$buf2] _4283__bF$buf15 d_lut_BUFX4
ABUFX4_378 [_4283__hier0_bF$buf1] _4283__bF$buf14 d_lut_BUFX4
ABUFX4_379 [_4283__hier0_bF$buf0] _4283__bF$buf13 d_lut_BUFX4
ABUFX4_380 [_4283__hier0_bF$buf5] _4283__bF$buf12 d_lut_BUFX4
ABUFX4_381 [_4283__hier0_bF$buf4] _4283__bF$buf11 d_lut_BUFX4
ABUFX4_382 [_4283__hier0_bF$buf3] _4283__bF$buf10 d_lut_BUFX4
ABUFX4_383 [_4283__hier0_bF$buf2] _4283__bF$buf9 d_lut_BUFX4
ABUFX4_384 [_4283__hier0_bF$buf1] _4283__bF$buf8 d_lut_BUFX4
ABUFX4_385 [_4283__hier0_bF$buf0] _4283__bF$buf7 d_lut_BUFX4
ABUFX4_386 [_4283__hier0_bF$buf5] _4283__bF$buf6 d_lut_BUFX4