*SPICE netlist created from BLIF module systemcomplete by blif2BSpice
.include /usr/share/qflow/tech/osu018/osu018_stdcells.sp
.subckt systemcomplete vdd gnd clk reset data_in[0] data_in[1] data_in[2] data_in[3] data_in[4] data_in[5] data_in[6] data_in[7] data_in[8] data_in[9] data_in[10] data_in[11] data_in[12] data_in[13] data_in[14] data_in[15] data_in[16] data_in[17] data_in[18] data_in[19] data_in[20] data_in[21] data_in[22] data_in[23] data_in[24] data_in[25] data_in[26] data_in[27] data_in[28] data_in[29] data_in[30] data_in[31] data_in[32] data_in[33] data_in[34] data_in[35] data_in[36] data_in[37] data_in[38] data_in[39] data_in[40] data_in[41] data_in[42] data_in[43] data_in[44] data_in[45] data_in[46] data_in[47] data_in[48] data_in[49] data_in[50] data_in[51] data_in[52] data_in[53] data_in[54] data_in[55] data_in[56] data_in[57] data_in[58] data_in[59] data_in[60] data_in[61] data_in[62] data_in[63] data_in[64] data_in[65] data_in[66] data_in[67] data_in[68] data_in[69] data_in[70] data_in[71] data_in[72] data_in[73] data_in[74] data_in[75] data_in[76] data_in[77] data_in[78] data_in[79] data_in[80] data_in[81] data_in[82] data_in[83] data_in[84] data_in[85] data_in[86] data_in[87] data_in[88] data_in[89] data_in[90] data_in[91] data_in[92] data_in[93] data_in[94] data_in[95] target[0] target[1] target[2] target[3] target[4] target[5] target[6] target[7] finished nonce_out[0] nonce_out[1] nonce_out[2] nonce_out[3] nonce_out[4] nonce_out[5] nonce_out[6] nonce_out[7] nonce_out[8] nonce_out[9] nonce_out[10] nonce_out[11] nonce_out[12] nonce_out[13] nonce_out[14] nonce_out[15] nonce_out[16] nonce_out[17] nonce_out[18] nonce_out[19] nonce_out[20] nonce_out[21] nonce_out[22] nonce_out[23] nonce_out[24] nonce_out[25] nonce_out[26] nonce_out[27] nonce_out[28] nonce_out[29] nonce_out[30] nonce_out[31] 
XBUFX4_1 vdd gnd clk clk_hier0_bF$buf8 BUFX4
XBUFX4_2 vdd gnd clk clk_hier0_bF$buf7 BUFX4
XBUFX4_3 vdd gnd clk clk_hier0_bF$buf6 BUFX4
XBUFX4_4 vdd gnd clk clk_hier0_bF$buf5 BUFX4
XBUFX4_5 vdd gnd clk clk_hier0_bF$buf4 BUFX4
XBUFX4_6 vdd gnd clk clk_hier0_bF$buf3 BUFX4
XBUFX4_7 vdd gnd clk clk_hier0_bF$buf2 BUFX4
XBUFX4_8 vdd gnd clk clk_hier0_bF$buf1 BUFX4
XBUFX4_9 vdd gnd clk clk_hier0_bF$buf0 BUFX4
XBUFX4_10 vdd gnd _4283_ _4283__hier0_bF$buf5 BUFX4
XBUFX4_11 vdd gnd _4283_ _4283__hier0_bF$buf4 BUFX4
XBUFX4_12 vdd gnd _4283_ _4283__hier0_bF$buf3 BUFX4
XBUFX4_13 vdd gnd _4283_ _4283__hier0_bF$buf2 BUFX4
XBUFX4_14 vdd gnd _4283_ _4283__hier0_bF$buf1 BUFX4
XBUFX4_15 vdd gnd _4283_ _4283__hier0_bF$buf0 BUFX4
XBUFX4_16 vdd gnd _588_ _588__bF$buf4 BUFX4
XBUFX4_17 vdd gnd _588_ _588__bF$buf3 BUFX4
XBUFX4_18 vdd gnd _588_ _588__bF$buf2 BUFX4
XBUFX4_19 vdd gnd _588_ _588__bF$buf1 BUFX4
XBUFX4_20 vdd gnd _588_ _588__bF$buf0 BUFX4
XBUFX4_21 vdd gnd _4226_ _4226__bF$buf3 BUFX4
XBUFX4_22 vdd gnd _4226_ _4226__bF$buf2 BUFX4
XBUFX4_23 vdd gnd _4226_ _4226__bF$buf1 BUFX4
XBUFX4_24 vdd gnd _4226_ _4226__bF$buf0 BUFX4
XBUFX4_25 vdd gnd _1122_ _1122__bF$buf4 BUFX4
XBUFX4_26 vdd gnd _1122_ _1122__bF$buf3 BUFX4
XBUFX4_27 vdd gnd _1122_ _1122__bF$buf2 BUFX4
XBUFX4_28 vdd gnd _1122_ _1122__bF$buf1 BUFX4
XBUFX4_29 vdd gnd _1122_ _1122__bF$buf0 BUFX4
XBUFX4_30 vdd gnd _832_ _832__bF$buf4 BUFX4
XBUFX4_31 vdd gnd _832_ _832__bF$buf3 BUFX4
XBUFX4_32 vdd gnd _832_ _832__bF$buf2 BUFX4
XBUFX4_33 vdd gnd _832_ _832__bF$buf1 BUFX4
XBUFX4_34 vdd gnd _832_ _832__bF$buf0 BUFX4
XBUFX4_35 vdd gnd micro_hash_ucr.pipe50 micro_hash_ucr.pipe50_bF$buf3 BUFX4
XBUFX4_36 vdd gnd micro_hash_ucr.pipe50 micro_hash_ucr.pipe50_bF$buf2 BUFX4
XBUFX4_37 vdd gnd micro_hash_ucr.pipe50 micro_hash_ucr.pipe50_bF$buf1 BUFX4
XBUFX4_38 vdd gnd micro_hash_ucr.pipe50 micro_hash_ucr.pipe50_bF$buf0 BUFX4
XBUFX4_39 vdd gnd micro_hash_ucr.pipe52 micro_hash_ucr.pipe52_bF$buf3 BUFX4
XBUFX4_40 vdd gnd micro_hash_ucr.pipe52 micro_hash_ucr.pipe52_bF$buf2 BUFX4
XBUFX4_41 vdd gnd micro_hash_ucr.pipe52 micro_hash_ucr.pipe52_bF$buf1 BUFX4
XBUFX4_42 vdd gnd micro_hash_ucr.pipe52 micro_hash_ucr.pipe52_bF$buf0 BUFX4
XBUFX4_43 vdd gnd micro_hash_ucr.pipe53 micro_hash_ucr.pipe53_bF$buf3 BUFX4
XBUFX4_44 vdd gnd micro_hash_ucr.pipe53 micro_hash_ucr.pipe53_bF$buf2 BUFX4
XBUFX4_45 vdd gnd micro_hash_ucr.pipe53 micro_hash_ucr.pipe53_bF$buf1 BUFX4
XBUFX4_46 vdd gnd micro_hash_ucr.pipe53 micro_hash_ucr.pipe53_bF$buf0 BUFX4
XBUFX4_47 vdd gnd micro_hash_ucr.pipe54 micro_hash_ucr.pipe54_bF$buf4 BUFX4
XBUFX4_48 vdd gnd micro_hash_ucr.pipe54 micro_hash_ucr.pipe54_bF$buf3 BUFX4
XBUFX4_49 vdd gnd micro_hash_ucr.pipe54 micro_hash_ucr.pipe54_bF$buf2 BUFX4
XBUFX4_50 vdd gnd micro_hash_ucr.pipe54 micro_hash_ucr.pipe54_bF$buf1 BUFX4
XBUFX4_51 vdd gnd micro_hash_ucr.pipe54 micro_hash_ucr.pipe54_bF$buf0 BUFX4
XBUFX4_52 vdd gnd micro_hash_ucr.pipe56 micro_hash_ucr.pipe56_bF$buf3 BUFX4
XBUFX4_53 vdd gnd micro_hash_ucr.pipe56 micro_hash_ucr.pipe56_bF$buf2 BUFX4
XBUFX4_54 vdd gnd micro_hash_ucr.pipe56 micro_hash_ucr.pipe56_bF$buf1 BUFX4
XBUFX4_55 vdd gnd micro_hash_ucr.pipe56 micro_hash_ucr.pipe56_bF$buf0 BUFX4
XBUFX4_56 vdd gnd micro_hash_ucr.pipe57 micro_hash_ucr.pipe57_bF$buf3 BUFX4
XBUFX4_57 vdd gnd micro_hash_ucr.pipe57 micro_hash_ucr.pipe57_bF$buf2 BUFX4
XBUFX4_58 vdd gnd micro_hash_ucr.pipe57 micro_hash_ucr.pipe57_bF$buf1 BUFX4
XBUFX4_59 vdd gnd micro_hash_ucr.pipe57 micro_hash_ucr.pipe57_bF$buf0 BUFX4
XBUFX4_60 vdd gnd micro_hash_ucr.pipe58 micro_hash_ucr.pipe58_bF$buf3 BUFX4
XBUFX4_61 vdd gnd micro_hash_ucr.pipe58 micro_hash_ucr.pipe58_bF$buf2 BUFX4
XBUFX4_62 vdd gnd micro_hash_ucr.pipe58 micro_hash_ucr.pipe58_bF$buf1 BUFX4
XBUFX4_63 vdd gnd micro_hash_ucr.pipe58 micro_hash_ucr.pipe58_bF$buf0 BUFX4
XBUFX4_64 vdd gnd micro_hash_ucr.c[3] micro_hash_ucr.c[3_bF$buf3] BUFX4
XBUFX4_65 vdd gnd micro_hash_ucr.c[3] micro_hash_ucr.c[3_bF$buf2] BUFX4
XBUFX4_66 vdd gnd micro_hash_ucr.c[3] micro_hash_ucr.c[3_bF$buf1] BUFX4
XBUFX4_67 vdd gnd micro_hash_ucr.c[3] micro_hash_ucr.c[3_bF$buf0] BUFX4
XBUFX4_68 vdd gnd micro_hash_ucr.b[6] micro_hash_ucr.b[6_bF$buf3] BUFX4
XBUFX4_69 vdd gnd micro_hash_ucr.b[6] micro_hash_ucr.b[6_bF$buf2] BUFX4
XBUFX4_70 vdd gnd micro_hash_ucr.b[6] micro_hash_ucr.b[6_bF$buf1] BUFX4
XBUFX4_71 vdd gnd micro_hash_ucr.b[6] micro_hash_ucr.b[6_bF$buf0] BUFX4
XBUFX4_72 vdd gnd _4199_ _4199__bF$buf5 BUFX4
XBUFX4_73 vdd gnd _4199_ _4199__bF$buf4 BUFX4
XBUFX4_74 vdd gnd _4199_ _4199__bF$buf3 BUFX4
XBUFX4_75 vdd gnd _4199_ _4199__bF$buf2 BUFX4
XBUFX4_76 vdd gnd _4199_ _4199__bF$buf1 BUFX4
XBUFX4_77 vdd gnd _4199_ _4199__bF$buf0 BUFX4
XBUFX4_78 vdd gnd _4220_ _4220__bF$buf4 BUFX4
XBUFX4_79 vdd gnd _4220_ _4220__bF$buf3 BUFX4
XBUFX4_80 vdd gnd _4220_ _4220__bF$buf2 BUFX4
XBUFX4_81 vdd gnd _4220_ _4220__bF$buf1 BUFX4
XBUFX4_82 vdd gnd _4220_ _4220__bF$buf0 BUFX4
XBUFX4_83 vdd gnd _4217_ _4217__bF$buf3 BUFX4
XBUFX4_84 vdd gnd _4217_ _4217__bF$buf2 BUFX4
XBUFX4_85 vdd gnd _4217_ _4217__bF$buf1 BUFX4
XBUFX4_86 vdd gnd _4217_ _4217__bF$buf0 BUFX4
XBUFX4_87 vdd gnd _2932_ _2932__bF$buf3 BUFX4
XBUFX4_88 vdd gnd _2932_ _2932__bF$buf2 BUFX4
XBUFX4_89 vdd gnd _2932_ _2932__bF$buf1 BUFX4
XBUFX4_90 vdd gnd _2932_ _2932__bF$buf0 BUFX4
XBUFX4_91 vdd gnd micro_hash_ucr.pipe20 micro_hash_ucr.pipe20_bF$buf3 BUFX4
XBUFX4_92 vdd gnd micro_hash_ucr.pipe20 micro_hash_ucr.pipe20_bF$buf2 BUFX4
XBUFX4_93 vdd gnd micro_hash_ucr.pipe20 micro_hash_ucr.pipe20_bF$buf1 BUFX4
XBUFX4_94 vdd gnd micro_hash_ucr.pipe20 micro_hash_ucr.pipe20_bF$buf0 BUFX4
XBUFX4_95 vdd gnd micro_hash_ucr.pipe22 micro_hash_ucr.pipe22_bF$buf3 BUFX4
XBUFX4_96 vdd gnd micro_hash_ucr.pipe22 micro_hash_ucr.pipe22_bF$buf2 BUFX4
XBUFX4_97 vdd gnd micro_hash_ucr.pipe22 micro_hash_ucr.pipe22_bF$buf1 BUFX4
XBUFX4_98 vdd gnd micro_hash_ucr.pipe22 micro_hash_ucr.pipe22_bF$buf0 BUFX4
XBUFX4_99 vdd gnd micro_hash_ucr.pipe24 micro_hash_ucr.pipe24_bF$buf3 BUFX4
XBUFX4_100 vdd gnd micro_hash_ucr.pipe24 micro_hash_ucr.pipe24_bF$buf2 BUFX4
XBUFX4_101 vdd gnd micro_hash_ucr.pipe24 micro_hash_ucr.pipe24_bF$buf1 BUFX4
XBUFX4_102 vdd gnd micro_hash_ucr.pipe24 micro_hash_ucr.pipe24_bF$buf0 BUFX4
XBUFX4_103 vdd gnd micro_hash_ucr.pipe25 micro_hash_ucr.pipe25_bF$buf3 BUFX4
XBUFX4_104 vdd gnd micro_hash_ucr.pipe25 micro_hash_ucr.pipe25_bF$buf2 BUFX4
XBUFX4_105 vdd gnd micro_hash_ucr.pipe25 micro_hash_ucr.pipe25_bF$buf1 BUFX4
XBUFX4_106 vdd gnd micro_hash_ucr.pipe25 micro_hash_ucr.pipe25_bF$buf0 BUFX4
XBUFX4_107 vdd gnd micro_hash_ucr.pipe26 micro_hash_ucr.pipe26_bF$buf3 BUFX4
XBUFX4_108 vdd gnd micro_hash_ucr.pipe26 micro_hash_ucr.pipe26_bF$buf2 BUFX4
XBUFX4_109 vdd gnd micro_hash_ucr.pipe26 micro_hash_ucr.pipe26_bF$buf1 BUFX4
XBUFX4_110 vdd gnd micro_hash_ucr.pipe26 micro_hash_ucr.pipe26_bF$buf0 BUFX4
XBUFX4_111 vdd gnd micro_hash_ucr.pipe27 micro_hash_ucr.pipe27_bF$buf3 BUFX4
XBUFX4_112 vdd gnd micro_hash_ucr.pipe27 micro_hash_ucr.pipe27_bF$buf2 BUFX4
XBUFX4_113 vdd gnd micro_hash_ucr.pipe27 micro_hash_ucr.pipe27_bF$buf1 BUFX4
XBUFX4_114 vdd gnd micro_hash_ucr.pipe27 micro_hash_ucr.pipe27_bF$buf0 BUFX4
XBUFX4_115 vdd gnd micro_hash_ucr.pipe28 micro_hash_ucr.pipe28_bF$buf3 BUFX4
XBUFX4_116 vdd gnd micro_hash_ucr.pipe28 micro_hash_ucr.pipe28_bF$buf2 BUFX4
XBUFX4_117 vdd gnd micro_hash_ucr.pipe28 micro_hash_ucr.pipe28_bF$buf1 BUFX4
XBUFX4_118 vdd gnd micro_hash_ucr.pipe28 micro_hash_ucr.pipe28_bF$buf0 BUFX4
XBUFX4_119 vdd gnd micro_hash_ucr.c[0] micro_hash_ucr.c[0_bF$buf3] BUFX4
XBUFX4_120 vdd gnd micro_hash_ucr.c[0] micro_hash_ucr.c[0_bF$buf2] BUFX4
XBUFX4_121 vdd gnd micro_hash_ucr.c[0] micro_hash_ucr.c[0_bF$buf1] BUFX4
XBUFX4_122 vdd gnd micro_hash_ucr.c[0] micro_hash_ucr.c[0_bF$buf0] BUFX4
XBUFX4_123 vdd gnd micro_hash_ucr.b[3] micro_hash_ucr.b[3_bF$buf3] BUFX4
XBUFX4_124 vdd gnd micro_hash_ucr.b[3] micro_hash_ucr.b[3_bF$buf2] BUFX4
XBUFX4_125 vdd gnd micro_hash_ucr.b[3] micro_hash_ucr.b[3_bF$buf1] BUFX4
XBUFX4_126 vdd gnd micro_hash_ucr.b[3] micro_hash_ucr.b[3_bF$buf0] BUFX4
XBUFX4_127 vdd gnd _826_ _826__bF$buf3 BUFX4
XBUFX4_128 vdd gnd _826_ _826__bF$buf2 BUFX4
XBUFX4_129 vdd gnd _826_ _826__bF$buf1 BUFX4
XBUFX4_130 vdd gnd _826_ _826__bF$buf0 BUFX4
XBUFX4_131 vdd gnd micro_hash_ucr.a[6] micro_hash_ucr.a[6_bF$buf3] BUFX4
XBUFX4_132 vdd gnd micro_hash_ucr.a[6] micro_hash_ucr.a[6_bF$buf2] BUFX4
XBUFX4_133 vdd gnd micro_hash_ucr.a[6] micro_hash_ucr.a[6_bF$buf1] BUFX4
XBUFX4_134 vdd gnd micro_hash_ucr.a[6] micro_hash_ucr.a[6_bF$buf0] BUFX4
XBUFX4_135 vdd gnd _1665_ _1665__bF$buf3 BUFX4
XBUFX4_136 vdd gnd _1665_ _1665__bF$buf2 BUFX4
XBUFX4_137 vdd gnd _1665_ _1665__bF$buf1 BUFX4
XBUFX4_138 vdd gnd _1665_ _1665__bF$buf0 BUFX4
XBUFX4_139 vdd gnd _4214_ _4214__bF$buf4 BUFX4
XBUFX4_140 vdd gnd _4214_ _4214__bF$buf3 BUFX4
XBUFX4_141 vdd gnd _4214_ _4214__bF$buf2 BUFX4
XBUFX4_142 vdd gnd _4214_ _4214__bF$buf1 BUFX4
XBUFX4_143 vdd gnd _4214_ _4214__bF$buf0 BUFX4
XBUFX4_144 vdd gnd micro_hash_ucr.b[0] micro_hash_ucr.b[0_bF$buf3] BUFX4
XBUFX4_145 vdd gnd micro_hash_ucr.b[0] micro_hash_ucr.b[0_bF$buf2] BUFX4
XBUFX4_146 vdd gnd micro_hash_ucr.b[0] micro_hash_ucr.b[0_bF$buf1] BUFX4
XBUFX4_147 vdd gnd micro_hash_ucr.b[0] micro_hash_ucr.b[0_bF$buf0] BUFX4
XBUFX4_148 vdd gnd _823_ _823__bF$buf3 BUFX4
XBUFX4_149 vdd gnd _823_ _823__bF$buf2 BUFX4
XBUFX4_150 vdd gnd _823_ _823__bF$buf1 BUFX4
XBUFX4_151 vdd gnd _823_ _823__bF$buf0 BUFX4
XBUFX4_152 vdd gnd micro_hash_ucr.a[3] micro_hash_ucr.a[3_bF$buf3] BUFX4
XBUFX4_153 vdd gnd micro_hash_ucr.a[3] micro_hash_ucr.a[3_bF$buf2] BUFX4
XBUFX4_154 vdd gnd micro_hash_ucr.a[3] micro_hash_ucr.a[3_bF$buf1] BUFX4
XBUFX4_155 vdd gnd micro_hash_ucr.a[3] micro_hash_ucr.a[3_bF$buf0] BUFX4
XBUFX4_156 vdd gnd _3138_ _3138__bF$buf3 BUFX4
XBUFX4_157 vdd gnd _3138_ _3138__bF$buf2 BUFX4
XBUFX4_158 vdd gnd _3138_ _3138__bF$buf1 BUFX4
XBUFX4_159 vdd gnd _3138_ _3138__bF$buf0 BUFX4
XBUFX4_160 vdd gnd _4211_ _4211__bF$buf4 BUFX4
XBUFX4_161 vdd gnd _4211_ _4211__bF$buf3 BUFX4
XBUFX4_162 vdd gnd _4211_ _4211__bF$buf2 BUFX4
XBUFX4_163 vdd gnd _4211_ _4211__bF$buf1 BUFX4
XBUFX4_164 vdd gnd _4211_ _4211__bF$buf0 BUFX4
XBUFX4_165 vdd gnd micro_hash_ucr.a[0] micro_hash_ucr.a[0_bF$buf3] BUFX4
XBUFX4_166 vdd gnd micro_hash_ucr.a[0] micro_hash_ucr.a[0_bF$buf2] BUFX4
XBUFX4_167 vdd gnd micro_hash_ucr.a[0] micro_hash_ucr.a[0_bF$buf1] BUFX4
XBUFX4_168 vdd gnd micro_hash_ucr.a[0] micro_hash_ucr.a[0_bF$buf0] BUFX4
XCLKBUF1_1 clk_hier0_bF$buf8 vdd gnd clk_bF$buf83 CLKBUF1
XCLKBUF1_2 clk_hier0_bF$buf7 vdd gnd clk_bF$buf82 CLKBUF1
XCLKBUF1_3 clk_hier0_bF$buf6 vdd gnd clk_bF$buf81 CLKBUF1
XCLKBUF1_4 clk_hier0_bF$buf6 vdd gnd clk_bF$buf80 CLKBUF1
XCLKBUF1_5 clk_hier0_bF$buf3 vdd gnd clk_bF$buf79 CLKBUF1
XCLKBUF1_6 clk_hier0_bF$buf4 vdd gnd clk_bF$buf78 CLKBUF1
XCLKBUF1_7 clk_hier0_bF$buf7 vdd gnd clk_bF$buf77 CLKBUF1
XCLKBUF1_8 clk_hier0_bF$buf0 vdd gnd clk_bF$buf76 CLKBUF1
XCLKBUF1_9 clk_hier0_bF$buf6 vdd gnd clk_bF$buf75 CLKBUF1
XCLKBUF1_10 clk_hier0_bF$buf1 vdd gnd clk_bF$buf74 CLKBUF1
XCLKBUF1_11 clk_hier0_bF$buf3 vdd gnd clk_bF$buf73 CLKBUF1
XCLKBUF1_12 clk_hier0_bF$buf7 vdd gnd clk_bF$buf72 CLKBUF1
XCLKBUF1_13 clk_hier0_bF$buf8 vdd gnd clk_bF$buf71 CLKBUF1
XCLKBUF1_14 clk_hier0_bF$buf1 vdd gnd clk_bF$buf70 CLKBUF1
XCLKBUF1_15 clk_hier0_bF$buf6 vdd gnd clk_bF$buf69 CLKBUF1
XCLKBUF1_16 clk_hier0_bF$buf6 vdd gnd clk_bF$buf68 CLKBUF1
XCLKBUF1_17 clk_hier0_bF$buf7 vdd gnd clk_bF$buf67 CLKBUF1
XCLKBUF1_18 clk_hier0_bF$buf7 vdd gnd clk_bF$buf66 CLKBUF1
XCLKBUF1_19 clk_hier0_bF$buf7 vdd gnd clk_bF$buf65 CLKBUF1
XCLKBUF1_20 clk_hier0_bF$buf2 vdd gnd clk_bF$buf64 CLKBUF1
XCLKBUF1_21 clk_hier0_bF$buf1 vdd gnd clk_bF$buf63 CLKBUF1
XCLKBUF1_22 clk_hier0_bF$buf8 vdd gnd clk_bF$buf62 CLKBUF1
XCLKBUF1_23 clk_hier0_bF$buf4 vdd gnd clk_bF$buf61 CLKBUF1
XCLKBUF1_24 clk_hier0_bF$buf0 vdd gnd clk_bF$buf60 CLKBUF1
XCLKBUF1_25 clk_hier0_bF$buf5 vdd gnd clk_bF$buf59 CLKBUF1
XCLKBUF1_26 clk_hier0_bF$buf3 vdd gnd clk_bF$buf58 CLKBUF1
XCLKBUF1_27 clk_hier0_bF$buf4 vdd gnd clk_bF$buf57 CLKBUF1
XCLKBUF1_28 clk_hier0_bF$buf4 vdd gnd clk_bF$buf56 CLKBUF1
XCLKBUF1_29 clk_hier0_bF$buf0 vdd gnd clk_bF$buf55 CLKBUF1
XCLKBUF1_30 clk_hier0_bF$buf0 vdd gnd clk_bF$buf54 CLKBUF1
XCLKBUF1_31 clk_hier0_bF$buf3 vdd gnd clk_bF$buf53 CLKBUF1
XCLKBUF1_32 clk_hier0_bF$buf2 vdd gnd clk_bF$buf52 CLKBUF1
XCLKBUF1_33 clk_hier0_bF$buf5 vdd gnd clk_bF$buf51 CLKBUF1
XCLKBUF1_34 clk_hier0_bF$buf5 vdd gnd clk_bF$buf50 CLKBUF1
XCLKBUF1_35 clk_hier0_bF$buf5 vdd gnd clk_bF$buf49 CLKBUF1
XCLKBUF1_36 clk_hier0_bF$buf8 vdd gnd clk_bF$buf48 CLKBUF1
XCLKBUF1_37 clk_hier0_bF$buf2 vdd gnd clk_bF$buf47 CLKBUF1
XCLKBUF1_38 clk_hier0_bF$buf6 vdd gnd clk_bF$buf46 CLKBUF1
XCLKBUF1_39 clk_hier0_bF$buf2 vdd gnd clk_bF$buf45 CLKBUF1
XCLKBUF1_40 clk_hier0_bF$buf3 vdd gnd clk_bF$buf44 CLKBUF1
XCLKBUF1_41 clk_hier0_bF$buf1 vdd gnd clk_bF$buf43 CLKBUF1
XCLKBUF1_42 clk_hier0_bF$buf2 vdd gnd clk_bF$buf42 CLKBUF1
XCLKBUF1_43 clk_hier0_bF$buf2 vdd gnd clk_bF$buf41 CLKBUF1
XCLKBUF1_44 clk_hier0_bF$buf4 vdd gnd clk_bF$buf40 CLKBUF1
XCLKBUF1_45 clk_hier0_bF$buf3 vdd gnd clk_bF$buf39 CLKBUF1
XCLKBUF1_46 clk_hier0_bF$buf3 vdd gnd clk_bF$buf38 CLKBUF1
XCLKBUF1_47 clk_hier0_bF$buf7 vdd gnd clk_bF$buf37 CLKBUF1
XCLKBUF1_48 clk_hier0_bF$buf4 vdd gnd clk_bF$buf36 CLKBUF1
XCLKBUF1_49 clk_hier0_bF$buf2 vdd gnd clk_bF$buf35 CLKBUF1
XCLKBUF1_50 clk_hier0_bF$buf3 vdd gnd clk_bF$buf34 CLKBUF1
XCLKBUF1_51 clk_hier0_bF$buf8 vdd gnd clk_bF$buf33 CLKBUF1
XCLKBUF1_52 clk_hier0_bF$buf4 vdd gnd clk_bF$buf32 CLKBUF1
XCLKBUF1_53 clk_hier0_bF$buf8 vdd gnd clk_bF$buf31 CLKBUF1
XCLKBUF1_54 clk_hier0_bF$buf3 vdd gnd clk_bF$buf30 CLKBUF1
XCLKBUF1_55 clk_hier0_bF$buf0 vdd gnd clk_bF$buf29 CLKBUF1
XCLKBUF1_56 clk_hier0_bF$buf4 vdd gnd clk_bF$buf28 CLKBUF1
XCLKBUF1_57 clk_hier0_bF$buf1 vdd gnd clk_bF$buf27 CLKBUF1
XCLKBUF1_58 clk_hier0_bF$buf7 vdd gnd clk_bF$buf26 CLKBUF1
XCLKBUF1_59 clk_hier0_bF$buf0 vdd gnd clk_bF$buf25 CLKBUF1
XCLKBUF1_60 clk_hier0_bF$buf6 vdd gnd clk_bF$buf24 CLKBUF1
XCLKBUF1_61 clk_hier0_bF$buf1 vdd gnd clk_bF$buf23 CLKBUF1
XCLKBUF1_62 clk_hier0_bF$buf5 vdd gnd clk_bF$buf22 CLKBUF1
XCLKBUF1_63 clk_hier0_bF$buf8 vdd gnd clk_bF$buf21 CLKBUF1
XCLKBUF1_64 clk_hier0_bF$buf2 vdd gnd clk_bF$buf20 CLKBUF1
XCLKBUF1_65 clk_hier0_bF$buf0 vdd gnd clk_bF$buf19 CLKBUF1
XCLKBUF1_66 clk_hier0_bF$buf6 vdd gnd clk_bF$buf18 CLKBUF1
XCLKBUF1_67 clk_hier0_bF$buf5 vdd gnd clk_bF$buf17 CLKBUF1
XCLKBUF1_68 clk_hier0_bF$buf0 vdd gnd clk_bF$buf16 CLKBUF1
XCLKBUF1_69 clk_hier0_bF$buf5 vdd gnd clk_bF$buf15 CLKBUF1
XCLKBUF1_70 clk_hier0_bF$buf5 vdd gnd clk_bF$buf14 CLKBUF1
XCLKBUF1_71 clk_hier0_bF$buf0 vdd gnd clk_bF$buf13 CLKBUF1
XCLKBUF1_72 clk_hier0_bF$buf5 vdd gnd clk_bF$buf12 CLKBUF1
XCLKBUF1_73 clk_hier0_bF$buf1 vdd gnd clk_bF$buf11 CLKBUF1
XCLKBUF1_74 clk_hier0_bF$buf7 vdd gnd clk_bF$buf10 CLKBUF1
XCLKBUF1_75 clk_hier0_bF$buf1 vdd gnd clk_bF$buf9 CLKBUF1
XCLKBUF1_76 clk_hier0_bF$buf6 vdd gnd clk_bF$buf8 CLKBUF1
XCLKBUF1_77 clk_hier0_bF$buf7 vdd gnd clk_bF$buf7 CLKBUF1
XCLKBUF1_78 clk_hier0_bF$buf2 vdd gnd clk_bF$buf6 CLKBUF1
XCLKBUF1_79 clk_hier0_bF$buf8 vdd gnd clk_bF$buf5 CLKBUF1
XCLKBUF1_80 clk_hier0_bF$buf4 vdd gnd clk_bF$buf4 CLKBUF1
XCLKBUF1_81 clk_hier0_bF$buf8 vdd gnd clk_bF$buf3 CLKBUF1
XCLKBUF1_82 clk_hier0_bF$buf6 vdd gnd clk_bF$buf2 CLKBUF1
XCLKBUF1_83 clk_hier0_bF$buf8 vdd gnd clk_bF$buf1 CLKBUF1
XCLKBUF1_84 clk_hier0_bF$buf1 vdd gnd clk_bF$buf0 CLKBUF1
XBUFX4_169 vdd gnd _2441_ _2441__bF$buf3 BUFX4
XBUFX4_170 vdd gnd _2441_ _2441__bF$buf2 BUFX4
XBUFX4_171 vdd gnd _2441_ _2441__bF$buf1 BUFX4
XBUFX4_172 vdd gnd _2441_ _2441__bF$buf0 BUFX4
XBUFX4_173 vdd gnd _2820_ _2820__bF$buf3 BUFX4
XBUFX4_174 vdd gnd _2820_ _2820__bF$buf2 BUFX4
XBUFX4_175 vdd gnd _2820_ _2820__bF$buf1 BUFX4
XBUFX4_176 vdd gnd _2820_ _2820__bF$buf0 BUFX4
XBUFX4_177 vdd gnd _4237_ _4237__bF$buf4 BUFX4
XBUFX4_178 vdd gnd _4237_ _4237__bF$buf3 BUFX4
XBUFX4_179 vdd gnd _4237_ _4237__bF$buf2 BUFX4
XBUFX4_180 vdd gnd _4237_ _4237__bF$buf1 BUFX4
XBUFX4_181 vdd gnd _4237_ _4237__bF$buf0 BUFX4
XBUFX4_182 vdd gnd _426_ _426__bF$buf3 BUFX4
XBUFX4_183 vdd gnd _426_ _426__bF$buf2 BUFX4
XBUFX4_184 vdd gnd _426_ _426__bF$buf1 BUFX4
XBUFX4_185 vdd gnd _426_ _426__bF$buf0 BUFX4
XBUFX4_186 vdd gnd _4234_ _4234__bF$buf3 BUFX4
XBUFX4_187 vdd gnd _4234_ _4234__bF$buf2 BUFX4
XBUFX4_188 vdd gnd _4234_ _4234__bF$buf1 BUFX4
XBUFX4_189 vdd gnd _4234_ _4234__bF$buf0 BUFX4
XBUFX4_190 vdd gnd _2811_ _2811__bF$buf3 BUFX4
XBUFX4_191 vdd gnd _2811_ _2811__bF$buf2 BUFX4
XBUFX4_192 vdd gnd _2811_ _2811__bF$buf1 BUFX4
XBUFX4_193 vdd gnd _2811_ _2811__bF$buf0 BUFX4
XBUFX4_194 vdd gnd _1679_ _1679__bF$buf3 BUFX4
XBUFX4_195 vdd gnd _1679_ _1679__bF$buf2 BUFX4
XBUFX4_196 vdd gnd _1679_ _1679__bF$buf1 BUFX4
XBUFX4_197 vdd gnd _1679_ _1679__bF$buf0 BUFX4
XBUFX4_198 vdd gnd _399_ _399__bF$buf3 BUFX4
XBUFX4_199 vdd gnd _399_ _399__bF$buf2 BUFX4
XBUFX4_200 vdd gnd _399_ _399__bF$buf1 BUFX4
XBUFX4_201 vdd gnd _399_ _399__bF$buf0 BUFX4
XBUFX4_202 vdd gnd _4228_ _4228__bF$buf4 BUFX4
XBUFX4_203 vdd gnd _4228_ _4228__bF$buf3 BUFX4
XBUFX4_204 vdd gnd _4228_ _4228__bF$buf2 BUFX4
XBUFX4_205 vdd gnd _4228_ _4228__bF$buf1 BUFX4
XBUFX4_206 vdd gnd _4228_ _4228__bF$buf0 BUFX4
XBUFX4_207 vdd gnd _4225_ _4225__bF$buf4 BUFX4
XBUFX4_208 vdd gnd _4225_ _4225__bF$buf3 BUFX4
XBUFX4_209 vdd gnd _4225_ _4225__bF$buf2 BUFX4
XBUFX4_210 vdd gnd _4225_ _4225__bF$buf1 BUFX4
XBUFX4_211 vdd gnd _4225_ _4225__bF$buf0 BUFX4
XBUFX4_212 vdd gnd _3246_ _3246__bF$buf3 BUFX4
XBUFX4_213 vdd gnd _3246_ _3246__bF$buf2 BUFX4
XBUFX4_214 vdd gnd _3246_ _3246__bF$buf1 BUFX4
XBUFX4_215 vdd gnd _3246_ _3246__bF$buf0 BUFX4
XBUFX4_216 vdd gnd micro_hash_ucr.pipe70 micro_hash_ucr.pipe70_bF$buf3 BUFX4
XBUFX4_217 vdd gnd micro_hash_ucr.pipe70 micro_hash_ucr.pipe70_bF$buf2 BUFX4
XBUFX4_218 vdd gnd micro_hash_ucr.pipe70 micro_hash_ucr.pipe70_bF$buf1 BUFX4
XBUFX4_219 vdd gnd micro_hash_ucr.pipe70 micro_hash_ucr.pipe70_bF$buf0 BUFX4
XBUFX4_220 vdd gnd _317_ _317__bF$buf3 BUFX4
XBUFX4_221 vdd gnd _317_ _317__bF$buf2 BUFX4
XBUFX4_222 vdd gnd _317_ _317__bF$buf1 BUFX4
XBUFX4_223 vdd gnd _317_ _317__bF$buf0 BUFX4
XBUFX4_224 vdd gnd _1673_ _1673__bF$buf3 BUFX4
XBUFX4_225 vdd gnd _1673_ _1673__bF$buf2 BUFX4
XBUFX4_226 vdd gnd _1673_ _1673__bF$buf1 BUFX4
XBUFX4_227 vdd gnd _1673_ _1673__bF$buf0 BUFX4
XBUFX4_228 vdd gnd _296_ _296__bF$buf4 BUFX4
XBUFX4_229 vdd gnd _296_ _296__bF$buf3 BUFX4
XBUFX4_230 vdd gnd _296_ _296__bF$buf2 BUFX4
XBUFX4_231 vdd gnd _296_ _296__bF$buf1 BUFX4
XBUFX4_232 vdd gnd _296_ _296__bF$buf0 BUFX4
XBUFX4_233 vdd gnd _4219_ _4219__bF$buf4 BUFX4
XBUFX4_234 vdd gnd _4219_ _4219__bF$buf3 BUFX4
XBUFX4_235 vdd gnd _4219_ _4219__bF$buf2 BUFX4
XBUFX4_236 vdd gnd _4219_ _4219__bF$buf1 BUFX4
XBUFX4_237 vdd gnd _4219_ _4219__bF$buf0 BUFX4
XBUFX4_238 vdd gnd _220_ _220__bF$buf4 BUFX4
XBUFX4_239 vdd gnd _220_ _220__bF$buf3 BUFX4
XBUFX4_240 vdd gnd _220_ _220__bF$buf2 BUFX4
XBUFX4_241 vdd gnd _220_ _220__bF$buf1 BUFX4
XBUFX4_242 vdd gnd _220_ _220__bF$buf0 BUFX4
XBUFX4_243 vdd gnd _2514_ _2514__bF$buf3 BUFX4
XBUFX4_244 vdd gnd _2514_ _2514__bF$buf2 BUFX4
XBUFX4_245 vdd gnd _2514_ _2514__bF$buf1 BUFX4
XBUFX4_246 vdd gnd _2514_ _2514__bF$buf0 BUFX4
XBUFX4_247 vdd gnd _3892_ _3892__bF$buf3 BUFX4
XBUFX4_248 vdd gnd _3892_ _3892__bF$buf2 BUFX4
XBUFX4_249 vdd gnd _3892_ _3892__bF$buf1 BUFX4
XBUFX4_250 vdd gnd _3892_ _3892__bF$buf0 BUFX4
XBUFX4_251 vdd gnd micro_hash_ucr.pipe40 micro_hash_ucr.pipe40_bF$buf4 BUFX4
XBUFX4_252 vdd gnd micro_hash_ucr.pipe40 micro_hash_ucr.pipe40_bF$buf3 BUFX4
XBUFX4_253 vdd gnd micro_hash_ucr.pipe40 micro_hash_ucr.pipe40_bF$buf2 BUFX4
XBUFX4_254 vdd gnd micro_hash_ucr.pipe40 micro_hash_ucr.pipe40_bF$buf1 BUFX4
XBUFX4_255 vdd gnd micro_hash_ucr.pipe40 micro_hash_ucr.pipe40_bF$buf0 BUFX4
XBUFX4_256 vdd gnd micro_hash_ucr.pipe41 micro_hash_ucr.pipe41_bF$buf3 BUFX4
XBUFX4_257 vdd gnd micro_hash_ucr.pipe41 micro_hash_ucr.pipe41_bF$buf2 BUFX4
XBUFX4_258 vdd gnd micro_hash_ucr.pipe41 micro_hash_ucr.pipe41_bF$buf1 BUFX4
XBUFX4_259 vdd gnd micro_hash_ucr.pipe41 micro_hash_ucr.pipe41_bF$buf0 BUFX4
XBUFX4_260 vdd gnd micro_hash_ucr.pipe42 micro_hash_ucr.pipe42_bF$buf4 BUFX4
XBUFX4_261 vdd gnd micro_hash_ucr.pipe42 micro_hash_ucr.pipe42_bF$buf3 BUFX4
XBUFX4_262 vdd gnd micro_hash_ucr.pipe42 micro_hash_ucr.pipe42_bF$buf2 BUFX4
XBUFX4_263 vdd gnd micro_hash_ucr.pipe42 micro_hash_ucr.pipe42_bF$buf1 BUFX4
XBUFX4_264 vdd gnd micro_hash_ucr.pipe42 micro_hash_ucr.pipe42_bF$buf0 BUFX4
XBUFX4_265 vdd gnd micro_hash_ucr.pipe44 micro_hash_ucr.pipe44_bF$buf3 BUFX4
XBUFX4_266 vdd gnd micro_hash_ucr.pipe44 micro_hash_ucr.pipe44_bF$buf2 BUFX4
XBUFX4_267 vdd gnd micro_hash_ucr.pipe44 micro_hash_ucr.pipe44_bF$buf1 BUFX4
XBUFX4_268 vdd gnd micro_hash_ucr.pipe44 micro_hash_ucr.pipe44_bF$buf0 BUFX4
XBUFX4_269 vdd gnd micro_hash_ucr.pipe46 micro_hash_ucr.pipe46_bF$buf4 BUFX4
XBUFX4_270 vdd gnd micro_hash_ucr.pipe46 micro_hash_ucr.pipe46_bF$buf3 BUFX4
XBUFX4_271 vdd gnd micro_hash_ucr.pipe46 micro_hash_ucr.pipe46_bF$buf2 BUFX4
XBUFX4_272 vdd gnd micro_hash_ucr.pipe46 micro_hash_ucr.pipe46_bF$buf1 BUFX4
XBUFX4_273 vdd gnd micro_hash_ucr.pipe46 micro_hash_ucr.pipe46_bF$buf0 BUFX4
XBUFX4_274 vdd gnd micro_hash_ucr.pipe48 micro_hash_ucr.pipe48_bF$buf4 BUFX4
XBUFX4_275 vdd gnd micro_hash_ucr.pipe48 micro_hash_ucr.pipe48_bF$buf3 BUFX4
XBUFX4_276 vdd gnd micro_hash_ucr.pipe48 micro_hash_ucr.pipe48_bF$buf2 BUFX4
XBUFX4_277 vdd gnd micro_hash_ucr.pipe48 micro_hash_ucr.pipe48_bF$buf1 BUFX4
XBUFX4_278 vdd gnd micro_hash_ucr.pipe48 micro_hash_ucr.pipe48_bF$buf0 BUFX4
XBUFX4_279 vdd gnd micro_hash_ucr.pipe49 micro_hash_ucr.pipe49_bF$buf3 BUFX4
XBUFX4_280 vdd gnd micro_hash_ucr.pipe49 micro_hash_ucr.pipe49_bF$buf2 BUFX4
XBUFX4_281 vdd gnd micro_hash_ucr.pipe49 micro_hash_ucr.pipe49_bF$buf1 BUFX4
XBUFX4_282 vdd gnd micro_hash_ucr.pipe49 micro_hash_ucr.pipe49_bF$buf0 BUFX4
XBUFX4_283 vdd gnd micro_hash_ucr.c[2] micro_hash_ucr.c[2_bF$buf3] BUFX4
XBUFX4_284 vdd gnd micro_hash_ucr.c[2] micro_hash_ucr.c[2_bF$buf2] BUFX4
XBUFX4_285 vdd gnd micro_hash_ucr.c[2] micro_hash_ucr.c[2_bF$buf1] BUFX4
XBUFX4_286 vdd gnd micro_hash_ucr.c[2] micro_hash_ucr.c[2_bF$buf0] BUFX4
XBUFX4_287 vdd gnd micro_hash_ucr.b[5] micro_hash_ucr.b[5_bF$buf3] BUFX4
XBUFX4_288 vdd gnd micro_hash_ucr.b[5] micro_hash_ucr.b[5_bF$buf2] BUFX4
XBUFX4_289 vdd gnd micro_hash_ucr.b[5] micro_hash_ucr.b[5_bF$buf1] BUFX4
XBUFX4_290 vdd gnd micro_hash_ucr.b[5] micro_hash_ucr.b[5_bF$buf0] BUFX4
XBUFX4_291 vdd gnd _255_ _255__bF$buf3 BUFX4
XBUFX4_292 vdd gnd _255_ _255__bF$buf2 BUFX4
XBUFX4_293 vdd gnd _255_ _255__bF$buf1 BUFX4
XBUFX4_294 vdd gnd _255_ _255__bF$buf0 BUFX4
XBUFX4_295 vdd gnd _1438_ _1438__bF$buf5 BUFX4
XBUFX4_296 vdd gnd _1438_ _1438__bF$buf4 BUFX4
XBUFX4_297 vdd gnd _1438_ _1438__bF$buf3 BUFX4
XBUFX4_298 vdd gnd _1438_ _1438__bF$buf2 BUFX4
XBUFX4_299 vdd gnd _1438_ _1438__bF$buf1 BUFX4
XBUFX4_300 vdd gnd _1438_ _1438__bF$buf0 BUFX4
XBUFX4_301 vdd gnd micro_hash_ucr.pipe12 micro_hash_ucr.pipe12_bF$buf3 BUFX4
XBUFX4_302 vdd gnd micro_hash_ucr.pipe12 micro_hash_ucr.pipe12_bF$buf2 BUFX4
XBUFX4_303 vdd gnd micro_hash_ucr.pipe12 micro_hash_ucr.pipe12_bF$buf1 BUFX4
XBUFX4_304 vdd gnd micro_hash_ucr.pipe12 micro_hash_ucr.pipe12_bF$buf0 BUFX4
XBUFX4_305 vdd gnd micro_hash_ucr.pipe18 micro_hash_ucr.pipe18_bF$buf4 BUFX4
XBUFX4_306 vdd gnd micro_hash_ucr.pipe18 micro_hash_ucr.pipe18_bF$buf3 BUFX4
XBUFX4_307 vdd gnd micro_hash_ucr.pipe18 micro_hash_ucr.pipe18_bF$buf2 BUFX4
XBUFX4_308 vdd gnd micro_hash_ucr.pipe18 micro_hash_ucr.pipe18_bF$buf1 BUFX4
XBUFX4_309 vdd gnd micro_hash_ucr.pipe18 micro_hash_ucr.pipe18_bF$buf0 BUFX4
XBUFX4_310 vdd gnd micro_hash_ucr.b[2] micro_hash_ucr.b[2_bF$buf3] BUFX4
XBUFX4_311 vdd gnd micro_hash_ucr.b[2] micro_hash_ucr.b[2_bF$buf2] BUFX4
XBUFX4_312 vdd gnd micro_hash_ucr.b[2] micro_hash_ucr.b[2_bF$buf1] BUFX4
XBUFX4_313 vdd gnd micro_hash_ucr.b[2] micro_hash_ucr.b[2_bF$buf0] BUFX4
XBUFX4_314 vdd gnd micro_hash_ucr.a[5] micro_hash_ucr.a[5_bF$buf3] BUFX4
XBUFX4_315 vdd gnd micro_hash_ucr.a[5] micro_hash_ucr.a[5_bF$buf2] BUFX4
XBUFX4_316 vdd gnd micro_hash_ucr.a[5] micro_hash_ucr.a[5_bF$buf1] BUFX4
XBUFX4_317 vdd gnd micro_hash_ucr.a[5] micro_hash_ucr.a[5_bF$buf0] BUFX4
XBUFX4_318 vdd gnd _2487_ _2487__bF$buf3 BUFX4
XBUFX4_319 vdd gnd _2487_ _2487__bF$buf2 BUFX4
XBUFX4_320 vdd gnd _2487_ _2487__bF$buf1 BUFX4
XBUFX4_321 vdd gnd _2487_ _2487__bF$buf0 BUFX4
XBUFX4_322 vdd gnd _249_ _249__bF$buf3 BUFX4
XBUFX4_323 vdd gnd _249_ _249__bF$buf2 BUFX4
XBUFX4_324 vdd gnd _249_ _249__bF$buf1 BUFX4
XBUFX4_325 vdd gnd _249_ _249__bF$buf0 BUFX4
XBUFX4_326 vdd gnd micro_hash_ucr.a[2] micro_hash_ucr.a[2_bF$buf4] BUFX4
XBUFX4_327 vdd gnd micro_hash_ucr.a[2] micro_hash_ucr.a[2_bF$buf3] BUFX4
XBUFX4_328 vdd gnd micro_hash_ucr.a[2] micro_hash_ucr.a[2_bF$buf2] BUFX4
XBUFX4_329 vdd gnd micro_hash_ucr.a[2] micro_hash_ucr.a[2_bF$buf1] BUFX4
XBUFX4_330 vdd gnd micro_hash_ucr.a[2] micro_hash_ucr.a[2_bF$buf0] BUFX4
XBUFX4_331 vdd gnd _4210_ _4210__bF$buf4 BUFX4
XBUFX4_332 vdd gnd _4210_ _4210__bF$buf3 BUFX4
XBUFX4_333 vdd gnd _4210_ _4210__bF$buf2 BUFX4
XBUFX4_334 vdd gnd _4210_ _4210__bF$buf1 BUFX4
XBUFX4_335 vdd gnd _4210_ _4210__bF$buf0 BUFX4
XBUFX4_336 vdd gnd _0_ _0__bF$buf8 BUFX4
XBUFX4_337 vdd gnd _0_ _0__bF$buf7 BUFX4
XBUFX4_338 vdd gnd _0_ _0__bF$buf6 BUFX4
XBUFX4_339 vdd gnd _0_ _0__bF$buf5 BUFX4
XBUFX4_340 vdd gnd _0_ _0__bF$buf4 BUFX4
XBUFX4_341 vdd gnd _0_ _0__bF$buf3 BUFX4
XBUFX4_342 vdd gnd _0_ _0__bF$buf2 BUFX4
XBUFX4_343 vdd gnd _0_ _0__bF$buf1 BUFX4
XBUFX4_344 vdd gnd _0_ _0__bF$buf0 BUFX4
XBUFX4_345 vdd gnd _4207_ _4207__bF$buf4 BUFX4
XBUFX4_346 vdd gnd _4207_ _4207__bF$buf3 BUFX4
XBUFX4_347 vdd gnd _4207_ _4207__bF$buf2 BUFX4
XBUFX4_348 vdd gnd _4207_ _4207__bF$buf1 BUFX4
XBUFX4_349 vdd gnd _4207_ _4207__bF$buf0 BUFX4
XBUFX4_350 vdd gnd _4283__hier0_bF$buf2 _4283__bF$buf42 BUFX4
XBUFX4_351 vdd gnd _4283__hier0_bF$buf2 _4283__bF$buf41 BUFX4
XBUFX4_352 vdd gnd _4283__hier0_bF$buf0 _4283__bF$buf40 BUFX4
XBUFX4_353 vdd gnd _4283__hier0_bF$buf3 _4283__bF$buf39 BUFX4
XBUFX4_354 vdd gnd _4283__hier0_bF$buf4 _4283__bF$buf38 BUFX4
XBUFX4_355 vdd gnd _4283__hier0_bF$buf2 _4283__bF$buf37 BUFX4
XBUFX4_356 vdd gnd _4283__hier0_bF$buf0 _4283__bF$buf36 BUFX4
XBUFX4_357 vdd gnd _4283__hier0_bF$buf3 _4283__bF$buf35 BUFX4
XBUFX4_358 vdd gnd _4283__hier0_bF$buf1 _4283__bF$buf34 BUFX4
XBUFX4_359 vdd gnd _4283__hier0_bF$buf5 _4283__bF$buf33 BUFX4
XBUFX4_360 vdd gnd _4283__hier0_bF$buf4 _4283__bF$buf32 BUFX4
XBUFX4_361 vdd gnd _4283__hier0_bF$buf0 _4283__bF$buf31 BUFX4
XBUFX4_362 vdd gnd _4283__hier0_bF$buf5 _4283__bF$buf30 BUFX4
XBUFX4_363 vdd gnd _4283__hier0_bF$buf3 _4283__bF$buf29 BUFX4
XBUFX4_364 vdd gnd _4283__hier0_bF$buf2 _4283__bF$buf28 BUFX4
XBUFX4_365 vdd gnd _4283__hier0_bF$buf3 _4283__bF$buf27 BUFX4
XBUFX4_366 vdd gnd _4283__hier0_bF$buf5 _4283__bF$buf26 BUFX4
XBUFX4_367 vdd gnd _4283__hier0_bF$buf0 _4283__bF$buf25 BUFX4
XBUFX4_368 vdd gnd _4283__hier0_bF$buf4 _4283__bF$buf24 BUFX4
XBUFX4_369 vdd gnd _4283__hier0_bF$buf5 _4283__bF$buf23 BUFX4
XBUFX4_370 vdd gnd _4283__hier0_bF$buf1 _4283__bF$buf22 BUFX4
XBUFX4_371 vdd gnd _4283__hier0_bF$buf4 _4283__bF$buf21 BUFX4
XBUFX4_372 vdd gnd _4283__hier0_bF$buf1 _4283__bF$buf20 BUFX4
XBUFX4_373 vdd gnd _4283__hier0_bF$buf5 _4283__bF$buf19 BUFX4
XBUFX4_374 vdd gnd _4283__hier0_bF$buf1 _4283__bF$buf18 BUFX4
XBUFX4_375 vdd gnd _4283__hier0_bF$buf4 _4283__bF$buf17 BUFX4
XBUFX4_376 vdd gnd _4283__hier0_bF$buf4 _4283__bF$buf16 BUFX4
XBUFX4_377 vdd gnd _4283__hier0_bF$buf2 _4283__bF$buf15 BUFX4
XBUFX4_378 vdd gnd _4283__hier0_bF$buf1 _4283__bF$buf14 BUFX4
XBUFX4_379 vdd gnd _4283__hier0_bF$buf5 _4283__bF$buf13 BUFX4
XBUFX4_380 vdd gnd _4283__hier0_bF$buf2 _4283__bF$buf12 BUFX4
XBUFX4_381 vdd gnd _4283__hier0_bF$buf5 _4283__bF$buf11 BUFX4
XBUFX4_382 vdd gnd _4283__hier0_bF$buf3 _4283__bF$buf10 BUFX4
XBUFX4_383 vdd gnd _4283__hier0_bF$buf0 _4283__bF$buf9 BUFX4
XBUFX4_384 vdd gnd _4283__hier0_bF$buf5 _4283__bF$buf8 BUFX4
XBUFX4_385 vdd gnd _4283__hier0_bF$buf0 _4283__bF$buf7 BUFX4
XBUFX4_386 vdd gnd _4283__hier0_bF$buf2 _4283__bF$buf6 BUFX4
XBUFX4_387 vdd gnd _4283__hier0_bF$buf1 _4283__bF$buf5 BUFX4
XBUFX4_388 vdd gnd _4283__hier0_bF$buf1 _4283__bF$buf4 BUFX4
XBUFX4_389 vdd gnd _4283__hier0_bF$buf4 _4283__bF$buf3 BUFX4
XBUFX4_390 vdd gnd _4283__hier0_bF$buf3 _4283__bF$buf2 BUFX4
XBUFX4_391 vdd gnd _4283__hier0_bF$buf3 _4283__bF$buf1 BUFX4